<?xml version="1.0" encoding="UTF-8"?>

<!-- generated on Thu Apr 13 00:56:10 2017 by SUMO netconvert Version 0.28.0
<?xml version="1.0" encoding="UTF-8"?>

<configuration xmlns:xsi="http://www.w3.org/2001/XMLSchema-instance" xsi:noNamespaceSchemaLocation="http://sumo.dlr.de/xsd/netconvertConfiguration.xsd">

    <input>
        <osm-files value="map.osm"/>
    </input>

    <output>
        <output-file value="map.net.xml"/>
    </output>

    <projection>
        <proj.utm value="true"/>
    </projection>

</configuration>
-->

<net version="0.27" xmlns:xsi="http://www.w3.org/2001/XMLSchema-instance" xsi:noNamespaceSchemaLocation="http://sumo.dlr.de/xsd/net_file.xsd">

    <location netOffset="-584686.74,-4511793.69" convBoundary="0.00,0.00,4407.96,8176.81" origBoundary="-73.996789,40.752742,-73.943413,40.825925" projParameter="+proj=utm +zone=18 +ellps=WGS84 +datum=WGS84 +units=m +no_defs"/>

    <type id="highway.bridleway" priority="1" numLanes="1" speed="2.78" allow="pedestrian" oneway="1" width="2.00"/>
    <type id="highway.bus_guideway" priority="1" numLanes="1" speed="8.33" allow="bus" oneway="1"/>
    <type id="highway.cycleway" priority="1" numLanes="1" speed="5.56" allow="bicycle" oneway="0" width="1.00"/>
    <type id="highway.footway" priority="1" numLanes="1" speed="2.78" allow="pedestrian" oneway="1" width="2.00"/>
    <type id="highway.ford" priority="1" numLanes="1" speed="2.78" allow="army" oneway="0"/>
    <type id="highway.living_street" priority="3" numLanes="1" speed="2.78" disallow="tram rail_urban rail rail_electric ship" oneway="0"/>
    <type id="highway.motorway" priority="13" numLanes="2" speed="44.44" allow="private emergency authority army vip passenger hov taxi bus coach delivery truck trailer motorcycle evehicle custom1 custom2" oneway="1"/>
    <type id="highway.motorway_link" priority="12" numLanes="1" speed="22.22" allow="private emergency authority army vip passenger hov taxi bus coach delivery truck trailer motorcycle evehicle custom1 custom2" oneway="1"/>
    <type id="highway.path" priority="1" numLanes="1" speed="2.78" allow="bicycle pedestrian" oneway="1" width="2.00"/>
    <type id="highway.pedestrian" priority="1" numLanes="1" speed="2.78" allow="pedestrian" oneway="1" width="2.00"/>
    <type id="highway.primary" priority="9" numLanes="2" speed="27.78" disallow="tram rail_urban rail rail_electric ship" oneway="0"/>
    <type id="highway.primary_link" priority="8" numLanes="1" speed="22.22" disallow="tram rail_urban rail rail_electric ship" oneway="0"/>
    <type id="highway.raceway" priority="14" numLanes="2" speed="83.33" allow="vip" oneway="0"/>
    <type id="highway.residential" priority="4" numLanes="1" speed="13.89" disallow="tram rail_urban rail rail_electric ship" oneway="0"/>
    <type id="highway.secondary" priority="7" numLanes="2" speed="27.78" disallow="tram rail_urban rail rail_electric ship" oneway="0"/>
    <type id="highway.secondary_link" priority="6" numLanes="1" speed="22.22" disallow="tram rail_urban rail rail_electric ship" oneway="0"/>
    <type id="highway.service" priority="2" numLanes="1" speed="5.56" allow="delivery bicycle pedestrian" oneway="0"/>
    <type id="highway.services" priority="1" numLanes="1" speed="8.33" disallow="tram rail_urban rail rail_electric ship" oneway="0"/>
    <type id="highway.stairs" priority="1" numLanes="1" speed="1.39" allow="pedestrian" oneway="1" width="2.00"/>
    <type id="highway.step" priority="1" numLanes="1" speed="1.39" allow="pedestrian" oneway="1" width="2.00"/>
    <type id="highway.steps" priority="1" numLanes="1" speed="1.39" allow="pedestrian" oneway="1" width="2.00"/>
    <type id="highway.tertiary" priority="6" numLanes="1" speed="22.22" disallow="tram rail_urban rail rail_electric ship" oneway="0"/>
    <type id="highway.tertiary_link" priority="5" numLanes="1" speed="22.22" disallow="tram rail_urban rail rail_electric ship" oneway="0"/>
    <type id="highway.track" priority="1" numLanes="1" speed="5.56" disallow="tram rail_urban rail rail_electric ship" oneway="0"/>
    <type id="highway.trunk" priority="11" numLanes="2" speed="27.78" disallow="tram rail_urban rail rail_electric bicycle pedestrian ship" oneway="0"/>
    <type id="highway.trunk_link" priority="10" numLanes="1" speed="22.22" disallow="tram rail_urban rail rail_electric bicycle pedestrian ship" oneway="0"/>
    <type id="highway.unclassified" priority="5" numLanes="1" speed="13.89" disallow="tram rail_urban rail rail_electric ship" oneway="0"/>
    <type id="highway.unsurfaced" priority="1" numLanes="1" speed="8.33" disallow="tram rail_urban rail rail_electric ship" oneway="0"/>
    <type id="railway.light_rail" priority="15" numLanes="1" speed="27.78" allow="rail_urban" oneway="1"/>
    <type id="railway.preserved" priority="15" numLanes="1" speed="27.78" allow="rail" oneway="1"/>
    <type id="railway.rail" priority="15" numLanes="1" speed="83.33" allow="rail rail_electric" oneway="1"/>
    <type id="railway.subway" priority="15" numLanes="1" speed="27.78" allow="rail_urban" oneway="1"/>
    <type id="railway.tram" priority="15" numLanes="1" speed="13.89" allow="tram" oneway="1"/>

    <edge id=":1061531429_0" function="internal">
        <lane id=":1061531429_0_0" index="0" disallow="tram rail_urban rail rail_electric ship" speed="11.18" length="6.39" shape="1229.88,1804.94 1229.79,1811.33"/>
        <lane id=":1061531429_0_1" index="1" disallow="tram rail_urban rail rail_electric ship" speed="11.18" length="6.39" shape="1226.58,1804.90 1226.49,1811.29"/>
    </edge>
    <edge id=":1061531429_2" function="internal">
        <lane id=":1061531429_2_0" index="0" disallow="tram rail_urban rail rail_electric ship" speed="12.53" length="5.60" shape="1226.58,1804.90 1226.34,1806.13 1225.67,1807.18 1224.55,1808.03 1222.99,1808.70"/>
    </edge>
    <edge id=":1061531447_0" function="internal">
        <lane id=":1061531447_0_0" index="0" disallow="tram rail_urban rail rail_electric ship" speed="20.84" length="9.53" shape="1225.89,2077.64 1224.25,2078.91 1223.04,2080.70 1222.26,2083.01 1221.91,2085.84"/>
    </edge>
    <edge id=":1061531447_1" function="internal">
        <lane id=":1061531447_1_0" index="0" disallow="tram rail_urban rail rail_electric ship" speed="13.89" length="12.30" shape="1225.89,2077.64 1215.01,2083.38"/>
    </edge>
    <edge id=":1061531447_2" function="internal">
        <lane id=":1061531447_2_0" index="0" disallow="tram rail_urban rail rail_electric ship" speed="27.78" length="10.38" shape="1222.23,2075.43 1221.91,2085.84"/>
        <lane id=":1061531447_2_1" index="1" disallow="tram rail_urban rail rail_electric ship" speed="27.78" length="10.38" shape="1218.93,2075.37 1218.61,2085.69"/>
    </edge>
    <edge id=":1061531447_4" function="internal">
        <lane id=":1061531447_4_0" index="0" disallow="tram rail_urban rail rail_electric ship" speed="20.84" length="9.37" shape="1218.93,2075.37 1218.64,2078.14 1217.90,2080.41 1216.69,2082.15 1215.01,2083.38"/>
    </edge>
    <edge id=":1061531509_0" function="internal">
        <lane id=":1061531509_0_0" index="0" disallow="tram rail_urban rail rail_electric ship" speed="27.78" length="11.12" shape="1229.31,1985.39 1226.89,1987.04 1225.14,1989.08 1224.08,1991.51 1223.68,1994.34"/>
    </edge>
    <edge id=":1061531509_1" function="internal">
        <lane id=":1061531509_1_0" index="0" disallow="tram rail_urban rail rail_electric ship" speed="27.78" length="14.23" shape="1229.31,1985.39 1216.74,1992.04"/>
        <lane id=":1061531509_1_1" index="1" disallow="tram rail_urban rail rail_electric ship" speed="27.78" length="14.23" shape="1227.77,1982.47 1215.19,1989.12"/>
    </edge>
    <edge id=":1061531509_3" function="internal">
        <lane id=":1061531509_3_0" index="0" disallow="tram rail_urban rail rail_electric ship" speed="19.48" length="14.22" shape="1224.17,1980.18 1223.68,1994.34"/>
        <lane id=":1061531509_3_1" index="1" disallow="tram rail_urban rail rail_electric ship" speed="19.48" length="14.22" shape="1220.88,1980.01 1220.38,1994.28"/>
    </edge>
    <edge id=":1061531685_0" function="internal">
        <lane id=":1061531685_0_0" index="0" disallow="tram rail_urban rail rail_electric ship" speed="20.84" length="5.89" shape="1218.20,2169.25 1218.35,2171.02 1219.00,2171.99 1220.16,2172.15 1221.81,2171.50"/>
    </edge>
    <edge id=":1061531685_1" function="internal">
        <lane id=":1061531685_1_0" index="0" disallow="tram rail_urban rail rail_electric ship" speed="27.78" length="6.92" shape="1218.20,2169.25 1217.97,2176.08"/>
        <lane id=":1061531685_1_1" index="1" disallow="tram rail_urban rail rail_electric ship" speed="27.78" length="6.92" shape="1214.90,2169.11 1214.67,2176.11"/>
    </edge>
    <edge id=":1061531777_0" function="internal">
        <lane id=":1061531777_0_0" index="0" disallow="tram rail_urban rail rail_electric ship" speed="12.53" length="5.78" shape="1228.63,1888.90 1228.84,1890.62 1229.51,1891.56 1230.66,1891.74 1232.28,1891.14"/>
    </edge>
    <edge id=":1061531777_1" function="internal">
        <lane id=":1061531777_1_0" index="0" disallow="tram rail_urban rail rail_electric ship" speed="11.18" length="10.64" shape="1228.63,1888.90 1228.27,1899.60"/>
        <lane id=":1061531777_1_1" index="1" disallow="tram rail_urban rail rail_electric ship" speed="11.18" length="10.64" shape="1225.33,1888.85 1224.98,1899.43"/>
    </edge>
    <edge id=":1061531777_3" function="internal">
        <lane id=":1061531777_3_0" index="0" disallow="tram rail_urban rail rail_electric ship" speed="13.89" length="12.51" shape="1221.35,1897.23 1232.28,1891.14"/>
    </edge>
    <edge id=":1061531777_4" function="internal">
        <lane id=":1061531777_4_0" index="0" disallow="tram rail_urban rail rail_electric ship" speed="12.53" length="5.96" shape="1221.35,1897.23 1223.02,1896.52 1224.18,1896.65 1224.84,1897.62 1224.98,1899.43"/>
    </edge>
    <edge id=":1241742563_0" function="internal">
        <lane id=":1241742563_0_0" index="0" disallow="tram rail_urban rail rail_electric ship" speed="20.84" length="6.37" shape="1107.22,2054.51 1106.07,2052.77 1104.86,2051.74 1103.59,2051.42 1102.25,2051.81"/>
    </edge>
    <edge id=":1241742563_1" function="internal">
        <lane id=":1241742563_1_0" index="0" disallow="tram rail_urban rail rail_electric ship" speed="27.78" length="9.48" shape="1107.22,2054.51 1102.72,2046.17"/>
        <lane id=":1241742563_1_1" index="1" disallow="tram rail_urban rail rail_electric ship" speed="27.78" length="9.48" shape="1110.13,2052.95 1105.63,2044.59"/>
    </edge>
    <edge id=":1241742563_3" function="internal">
        <lane id=":1241742563_3_0" index="0" disallow="tram rail_urban rail rail_electric ship" speed="20.84" length="9.69" shape="1111.39,2048.75 1108.77,2049.87 1106.82,2050.28 1104.87,2050.69 1102.25,2051.81"/>
    </edge>
    <edge id=":1241742563_4" function="internal">
        <lane id=":1241742563_4_0" index="0" disallow="tram rail_urban rail rail_electric ship" speed="27.78" length="5.00" shape="1109.83,2045.85 1108.54,2046.32 1107.41,2046.27 1106.44,2045.69 1105.63,2044.59"/>
    </edge>
    <edge id=":1241742627_0" function="internal">
        <lane id=":1241742627_0_0" index="0" disallow="tram rail_urban rail rail_electric ship" speed="27.78" length="6.31" shape="1030.66,1913.79 1027.58,1908.30"/>
        <lane id=":1241742627_0_1" index="1" disallow="tram rail_urban rail rail_electric ship" speed="27.78" length="6.31" shape="1033.54,1912.18 1030.45,1906.68"/>
    </edge>
    <edge id=":1241742627_2" function="internal">
        <lane id=":1241742627_2_0" index="0" disallow="tram rail_urban rail rail_electric ship" speed="20.84" length="4.70" shape="1034.30,1908.22 1033.20,1908.59 1032.20,1908.45 1031.28,1907.82 1030.45,1906.68"/>
    </edge>
    <edge id=":1241742627_3" function="internal">
        <lane id=":1241742627_3_0" index="0" disallow="tram rail_urban rail rail_electric ship" speed="20.84" length="5.02" shape="1026.35,1912.51 1027.46,1911.69 1028.04,1910.71 1028.07,1909.58 1027.58,1908.30"/>
    </edge>
    <edge id=":1241742743_0" function="internal">
        <lane id=":1241742743_0_0" index="0" disallow="tram rail_urban rail rail_electric ship" speed="13.89" length="0.10" shape="789.54,2039.73 789.54,2039.73"/>
    </edge>
    <edge id=":1241742749_0" function="internal">
        <lane id=":1241742749_0_0" index="0" disallow="tram rail_urban rail rail_electric ship" speed="27.78" length="5.05" shape="1044.37,1938.35 1041.95,1933.95"/>
        <lane id=":1241742749_0_1" index="1" disallow="tram rail_urban rail rail_electric ship" speed="27.78" length="5.05" shape="1047.27,1936.78 1044.83,1932.33"/>
    </edge>
    <edge id=":1241760156_0" function="internal">
        <lane id=":1241760156_0_0" index="0" allow="delivery bicycle pedestrian" speed="9.73" length="5.03" shape="1009.83,2101.76 1008.74,2102.57 1008.16,2103.55 1008.10,2104.69 1008.56,2106.00"/>
    </edge>
    <edge id=":1241760156_1" function="internal">
        <lane id=":1241760156_1_0" index="0" disallow="tram rail_urban rail rail_electric ship" speed="13.89" length="6.20" shape="1009.83,2101.76 1004.37,2104.71"/>
    </edge>
    <edge id=":1241760168_0" function="internal">
        <lane id=":1241760168_0_0" index="0" disallow="tram rail_urban rail rail_electric ship" speed="9.73" length="5.03" shape="999.10,2111.12 998.30,2109.99 997.33,2109.40 996.20,2109.34 994.91,2109.82"/>
    </edge>
    <edge id=":1241760168_1" function="internal">
        <lane id=":1241760168_1_0" index="0" disallow="tram rail_urban rail rail_electric ship" speed="13.89" length="6.20" shape="1000.36,2106.87 994.91,2109.82"/>
    </edge>
    <edge id=":1283225030_0" function="internal">
        <lane id=":1283225030_0_0" index="0" disallow="tram rail_urban rail rail_electric ship" speed="13.89" length="5.13" shape="1614.02,1627.66 1619.00,1626.40"/>
    </edge>
    <edge id=":1420631978_0" function="internal">
        <lane id=":1420631978_0_0" index="0" disallow="tram rail_urban rail rail_electric ship" speed="11.18" length="5.11" shape="1482.00,1980.16 1478.72,1976.24"/>
    </edge>
    <edge id=":1420632012_0" function="internal">
        <lane id=":1420632012_0_0" index="0" disallow="tram rail_urban rail rail_electric ship" speed="27.78" length="8.96" shape="1517.38,2190.91 1510.36,2197.02"/>
        <lane id=":1420632012_0_1" index="1" disallow="tram rail_urban rail rail_electric ship" speed="27.78" length="8.96" shape="1515.14,2188.48 1508.68,2194.18"/>
    </edge>
    <edge id=":1420632024_0" function="internal">
        <lane id=":1420632024_0_0" index="0" disallow="tram rail_urban rail rail_electric ship" speed="27.78" length="4.65" shape="1525.63,2124.91 1530.27,2126.25"/>
        <lane id=":1420632024_0_1" index="1" disallow="tram rail_urban rail rail_electric ship" speed="27.78" length="4.65" shape="1524.92,2128.13 1529.21,2129.37"/>
    </edge>
    <edge id=":1420632047_0" function="internal">
        <lane id=":1420632047_0_0" index="0" disallow="tram rail_urban rail rail_electric ship" speed="27.78" length="0.48" shape="1487.75,2120.41 1488.46,2120.34"/>
        <lane id=":1420632047_0_1" index="1" disallow="tram rail_urban rail rail_electric ship" speed="27.78" length="0.48" shape="1488.34,2123.66 1488.57,2123.64"/>
    </edge>
    <edge id=":1420632698_0" function="internal">
        <lane id=":1420632698_0_0" index="0" disallow="tram rail_urban rail rail_electric ship" speed="27.78" length="5.00" shape="1396.79,2023.05 1394.40,2018.66"/>
        <lane id=":1420632698_0_1" index="1" disallow="tram rail_urban rail rail_electric ship" speed="27.78" length="5.00" shape="1399.69,2021.48 1397.31,2017.08"/>
    </edge>
    <edge id=":1420632698_2" function="internal">
        <lane id=":1420632698_2_0" index="0" disallow="tram rail_urban rail rail_electric ship" speed="27.78" length="2.41" shape="1399.69,2021.48 1399.83,2020.00 1400.35,2019.24"/>
    </edge>
    <edge id=":1420632698_6" function="internal">
        <lane id=":1420632698_6_0" index="0" speed="27.78" length="2.41" shape="1400.35,2019.24 1401.28,2019.21 1402.59,2019.91"/>
    </edge>
    <edge id=":1420632698_3" function="internal">
        <lane id=":1420632698_3_0" index="0" disallow="tram rail_urban rail rail_electric ship" speed="27.78" length="5.00" shape="1403.11,2013.93 1405.49,2018.33"/>
        <lane id=":1420632698_3_1" index="1" disallow="tram rail_urban rail rail_electric ship" speed="27.78" length="5.00" shape="1400.21,2015.51 1402.59,2019.91"/>
    </edge>
    <edge id=":1420632698_5" function="internal">
        <lane id=":1420632698_5_0" index="0" disallow="tram rail_urban rail rail_electric ship" speed="27.78" length="2.41" shape="1400.21,2015.51 1400.07,2016.99 1399.54,2017.75"/>
    </edge>
    <edge id=":1420632698_7" function="internal">
        <lane id=":1420632698_7_0" index="0" speed="27.78" length="2.41" shape="1399.54,2017.75 1398.62,2017.78 1397.31,2017.08"/>
    </edge>
    <edge id=":1420632727_0" function="internal">
        <lane id=":1420632727_0_0" index="0" disallow="tram rail_urban rail rail_electric ship" speed="13.89" length="5.39" shape="1399.53,1812.78 1400.89,1807.57"/>
    </edge>
    <edge id=":1420632746_0" function="internal">
        <lane id=":1420632746_0_0" index="0" disallow="tram rail_urban rail rail_electric ship" speed="13.89" length="0.29" shape="1400.30,1841.72 1400.21,1841.44"/>
    </edge>
    <edge id=":1695371036_0" function="internal">
        <lane id=":1695371036_0_0" index="0" disallow="tram rail_urban rail rail_electric ship" speed="11.18" length="6.30" shape="1234.50,1767.36 1233.26,1768.51 1232.49,1769.40 1231.95,1770.45 1231.37,1772.03"/>
        <lane id=":1695371036_0_1" index="1" disallow="tram rail_urban rail rail_electric ship" speed="11.18" length="6.30" shape="1232.30,1764.90 1230.79,1766.26 1229.84,1767.31 1229.15,1768.53 1228.43,1770.42"/>
    </edge>
    <edge id=":1701856467_0" function="internal">
        <lane id=":1701856467_0_0" index="0" disallow="tram rail_urban rail rail_electric ship" speed="11.18" length="2.82" shape="1256.24,1642.59 1256.02,1639.88"/>
        <lane id=":1701856467_0_1" index="1" disallow="tram rail_urban rail rail_electric ship" speed="11.18" length="2.82" shape="1259.53,1642.42 1259.30,1639.51"/>
    </edge>
    <edge id=":1701856471_0" function="internal">
        <lane id=":1701856471_0_0" index="0" disallow="tram rail_urban rail rail_electric ship" speed="11.18" length="0.93" shape="1256.38,1646.30 1256.34,1644.53"/>
        <lane id=":1701856471_0_1" index="1" disallow="tram rail_urban rail rail_electric ship" speed="11.18" length="0.93" shape="1259.73,1644.36 1259.63,1644.36"/>
    </edge>
    <edge id=":1701856476_0" function="internal">
        <lane id=":1701856476_0_0" index="0" disallow="tram rail_urban rail rail_electric ship" speed="11.18" length="4.56" shape="1253.90,1657.94 1255.69,1653.81"/>
        <lane id=":1701856476_0_1" index="1" disallow="tram rail_urban rail rail_electric ship" speed="11.18" length="4.56" shape="1256.91,1659.29 1258.75,1655.05"/>
    </edge>
    <edge id=":1792535228_0" function="internal">
        <lane id=":1792535228_0_0" index="0" disallow="tram rail_urban rail rail_electric ship" speed="11.18" length="5.60" shape="1295.90,1688.54 1292.26,1692.58"/>
        <lane id=":1792535228_0_1" index="1" disallow="tram rail_urban rail rail_electric ship" speed="11.18" length="5.60" shape="1293.63,1686.14 1289.76,1690.42"/>
    </edge>
    <edge id=":1792535233_0" function="internal">
        <lane id=":1792535233_0_0" index="0" disallow="tram rail_urban rail rail_electric ship" speed="11.18" length="7.94" shape="1285.16,1679.40 1287.61,1679.23 1289.27,1678.91 1290.93,1678.54 1293.37,1678.22"/>
        <lane id=":1792535233_0_1" index="1" disallow="tram rail_urban rail rail_electric ship" speed="11.18" length="7.94" shape="1286.16,1682.68 1288.40,1682.51 1289.90,1682.18 1291.41,1681.81 1293.64,1681.51"/>
    </edge>
    <edge id=":1792549689_0" function="internal">
        <lane id=":1792549689_0_0" index="0" disallow="tram rail_urban rail rail_electric ship" speed="11.18" length="7.29" shape="1210.33,1657.77 1211.21,1659.20 1211.97,1660.07 1212.87,1660.82 1214.16,1661.92"/>
        <lane id=":1792549689_0_1" index="1" disallow="tram rail_urban rail rail_electric ship" speed="11.18" length="7.29" shape="1207.44,1659.36 1208.46,1661.06 1209.35,1662.11 1210.39,1663.02 1211.91,1664.34"/>
        <lane id=":1792549689_0_2" index="2" disallow="tram rail_urban rail rail_electric ship" speed="11.18" length="7.29" shape="1204.54,1660.94 1205.72,1662.92 1206.72,1664.15 1207.91,1665.22 1209.66,1666.75"/>
        <lane id=":1792549689_0_3" index="3" disallow="tram rail_urban rail rail_electric ship" speed="11.18" length="7.29" shape="1201.65,1662.53 1202.98,1664.78 1204.10,1666.19 1205.44,1667.43 1207.41,1669.17"/>
    </edge>
    <edge id=":1825803850_0" function="internal">
        <lane id=":1825803850_0_0" index="0" disallow="tram rail_urban rail rail_electric ship" speed="11.18" length="7.60" shape="1210.32,1766.66 1210.40,1759.16"/>
        <lane id=":1825803850_0_1" index="1" disallow="tram rail_urban rail rail_electric ship" speed="11.18" length="7.60" shape="1213.62,1766.80 1213.70,1759.10"/>
    </edge>
    <edge id=":1825841700_0" function="internal">
        <lane id=":1825841700_0_0" index="0" disallow="tram rail_urban rail rail_electric ship" speed="11.18" length="15.75" shape="1214.32,1662.06 1217.63,1664.69 1220.80,1666.44 1223.81,1667.30 1226.69,1667.28"/>
        <lane id=":1825841700_0_1" index="1" disallow="tram rail_urban rail rail_electric ship" speed="11.18" length="15.75" shape="1213.47,1665.75 1216.80,1668.29 1220.20,1669.93 1223.68,1670.68 1227.22,1670.54"/>
        <lane id=":1825841700_0_2" index="2" disallow="tram rail_urban rail rail_electric ship" speed="11.18" length="15.75" shape="1212.67,1669.25 1216.72,1671.95 1219.78,1673.61 1223.05,1674.23 1227.76,1673.79"/>
        <lane id=":1825841700_0_3" index="3" disallow="tram rail_urban rail rail_electric ship" speed="11.18" length="15.75" shape="1211.88,1672.67 1216.28,1675.50 1219.62,1677.11 1223.20,1677.60 1228.30,1677.05"/>
    </edge>
    <edge id=":1825841700_4" function="internal">
        <lane id=":1825841700_4_0" index="0" disallow="tram rail_urban rail rail_electric ship" speed="11.18" length="16.59" shape="1211.99,1677.66 1216.09,1674.68 1219.06,1672.78 1222.31,1671.54 1227.22,1670.54"/>
        <lane id=":1825841700_4_1" index="1" disallow="tram rail_urban rail rail_electric ship" speed="11.18" length="16.59" shape="1212.93,1681.04 1216.94,1678.08 1219.81,1676.12 1222.95,1674.82 1227.76,1673.79"/>
        <lane id=":1825841700_4_2" index="2" disallow="tram rail_urban rail rail_electric ship" speed="11.18" length="16.59" shape="1213.89,1684.49 1217.60,1681.27 1220.39,1679.28 1223.53,1678.02 1228.30,1677.05"/>
        <lane id=":1825841700_4_3" index="3" disallow="tram rail_urban rail rail_electric ship" speed="11.18" length="16.59" shape="1213.89,1684.49 1217.62,1681.87 1220.69,1680.97 1224.09,1680.78 1228.83,1680.31"/>
    </edge>
    <edge id=":1825841715_0" function="internal">
        <lane id=":1825841715_0_0" index="0" disallow="tram rail_urban rail rail_electric ship" speed="11.18" length="5.13" shape="1228.72,1753.44 1223.80,1751.98"/>
    </edge>
    <edge id=":1825841739_0" function="internal">
        <lane id=":1825841739_0_0" index="0" disallow="tram rail_urban rail rail_electric ship" speed="11.18" length="5.68" shape="1276.30,1691.72 1278.87,1697.09"/>
        <lane id=":1825841739_0_1" index="1" disallow="tram rail_urban rail rail_electric ship" speed="11.18" length="5.68" shape="1273.39,1693.27 1275.84,1698.40"/>
        <lane id=":1825841739_0_2" index="2" disallow="tram rail_urban rail rail_electric ship" speed="11.18" length="5.68" shape="1270.48,1694.82 1272.80,1699.70"/>
    </edge>
    <edge id=":1825841742_0" function="internal">
        <lane id=":1825841742_0_0" index="0" disallow="tram rail_urban rail rail_electric ship" speed="11.18" length="7.60" shape="1247.51,1756.81 1245.61,1757.54 1244.44,1758.31 1243.40,1759.32 1241.91,1760.75"/>
        <lane id=":1825841742_0_1" index="1" disallow="tram rail_urban rail rail_electric ship" speed="11.18" length="7.60" shape="1246.52,1753.67 1244.26,1754.51 1242.84,1755.39 1241.57,1756.54 1239.79,1758.22"/>
    </edge>
    <edge id=":1825841742_2" function="internal">
        <lane id=":1825841742_2_0" index="0" disallow="tram rail_urban rail rail_electric ship" speed="11.18" length="13.65" shape="1245.53,1750.52 1232.36,1754.11"/>
    </edge>
    <edge id=":1825841743_0" function="internal">
        <lane id=":1825841743_0_0" index="0" disallow="tram rail_urban rail rail_electric ship" speed="11.18" length="5.22" shape="1250.14,1666.03 1250.83,1665.47 1251.41,1664.18 1251.87,1662.73 1252.23,1661.66"/>
        <lane id=":1825841743_0_1" index="1" disallow="tram rail_urban rail rail_electric ship" speed="11.18" length="5.22" shape="1250.16,1669.33 1251.24,1669.10 1252.24,1668.44 1253.16,1667.35 1253.99,1665.81"/>
    </edge>
    <edge id=":1825841743_2" function="internal">
        <lane id=":1825841743_2_0" index="0" disallow="tram rail_urban rail rail_electric ship" speed="11.18" length="5.01" shape="1250.16,1669.33 1251.70,1669.47 1252.70,1669.87 1253.67,1670.45 1255.11,1671.13"/>
        <lane id=":1825841743_2_1" index="1" disallow="tram rail_urban rail rail_electric ship" speed="11.18" length="5.01" shape="1250.17,1672.63 1251.62,1672.79 1252.55,1673.24 1253.44,1673.86 1254.80,1674.54"/>
        <lane id=":1825841743_2_2" index="2" disallow="tram rail_urban rail rail_electric ship" speed="11.18" length="5.01" shape="1250.19,1675.93 1251.57,1676.10 1252.43,1676.58 1253.24,1677.26 1254.47,1678.04"/>
        <lane id=":1825841743_2_3" index="3" disallow="tram rail_urban rail rail_electric ship" speed="11.18" length="5.01" shape="1250.21,1679.23 1251.50,1679.44 1252.27,1680.01 1252.99,1680.77 1254.15,1681.57"/>
    </edge>
    <edge id=":1825841754_0" function="internal">
        <lane id=":1825841754_0_0" index="0" disallow="tram rail_urban rail rail_electric ship" speed="11.18" length="4.69" shape="1209.87,1752.05 1209.57,1748.04"/>
        <lane id=":1825841754_0_1" index="1" disallow="tram rail_urban rail rail_electric ship" speed="11.18" length="4.69" shape="1213.05,1750.98 1211.94,1745.74"/>
    </edge>
    <edge id=":1825841754_2" function="internal">
        <lane id=":1825841754_2_0" index="0" disallow="tram rail_urban rail rail_electric ship" speed="11.18" length="12.32" shape="1223.13,1751.75 1220.35,1750.38 1218.52,1748.62 1216.80,1746.35 1214.31,1743.44"/>
    </edge>
    <edge id=":2059303809_0" function="internal">
        <lane id=":2059303809_0_0" index="0" disallow="tram rail_urban rail rail_electric ship" speed="13.89" length="5.38" shape="1516.06,2016.67 1512.38,2012.74"/>
    </edge>
    <edge id=":2349482107_0" function="internal">
        <lane id=":2349482107_0_0" index="0" disallow="tram rail_urban rail rail_electric ship" speed="8.37" length="4.21" shape="926.04,1698.90 925.30,1697.76 924.50,1697.08 923.65,1696.86 922.75,1697.11"/>
    </edge>
    <edge id=":2349482107_1" function="internal">
        <lane id=":2349482107_1_0" index="0" allow="bicycle" speed="5.56" length="16.10" width="1.00" shape="926.04,1698.90 918.57,1684.63"/>
    </edge>
    <edge id=":2349482107_2" function="internal">
        <lane id=":2349482107_2_0" index="0" disallow="tram rail_urban rail rail_electric ship" speed="8.37" length="10.33" shape="926.04,1698.90 924.18,1695.08 923.11,1692.22 922.83,1690.30 923.35,1689.34"/>
    </edge>
    <edge id=":2349482107_3" function="internal">
        <lane id=":2349482107_3_0" index="0" disallow="tram rail_urban rail rail_electric ship" speed="11.18" length="4.17" shape="926.47,1695.15 922.75,1697.11"/>
        <lane id=":2349482107_3_1" index="1" disallow="tram rail_urban rail rail_electric ship" speed="11.18" length="4.17" shape="924.91,1692.25 921.24,1694.17"/>
    </edge>
    <edge id=":2349482107_5" function="internal">
        <lane id=":2349482107_5_0" index="0" allow="bicycle" speed="8.37" length="2.27" width="1.00" shape="924.91,1692.25 923.82,1692.14 922.95,1691.35"/>
    </edge>
    <edge id=":2349482107_6" function="internal">
        <lane id=":2349482107_6_0" index="0" disallow="tram rail_urban rail rail_electric ship" speed="11.18" length="2.41" shape="924.91,1692.25 923.43,1692.10 922.67,1691.57"/>
    </edge>
    <edge id=":2349482107_11" function="internal">
        <lane id=":2349482107_11_0" index="0" speed="8.37" length="8.06" width="1.00" shape="922.95,1691.35 922.40,1690.84 920.65,1688.34 918.57,1684.63"/>
    </edge>
    <edge id=":2349482107_12" function="internal">
        <lane id=":2349482107_12_0" index="0" speed="11.18" length="2.41" shape="922.67,1691.57 922.65,1690.65 923.35,1689.34"/>
    </edge>
    <edge id=":2349482107_7" function="internal">
        <lane id=":2349482107_7_0" index="0" allow="bicycle" speed="8.37" length="4.16" width="1.00" shape="918.22,1688.31 918.91,1687.73 919.20,1686.93 919.09,1685.89 918.57,1684.63"/>
    </edge>
    <edge id=":2349482107_8" function="internal">
        <lane id=":2349482107_8_0" index="0" disallow="tram rail_urban rail rail_electric ship" speed="11.18" length="4.06" shape="918.22,1688.31 921.78,1686.43"/>
        <lane id=":2349482107_8_1" index="1" disallow="tram rail_urban rail rail_electric ship" speed="11.18" length="4.06" shape="919.73,1691.24 923.35,1689.34"/>
    </edge>
    <edge id=":2349482107_10" function="internal">
        <lane id=":2349482107_10_0" index="0" disallow="tram rail_urban rail rail_electric ship" speed="11.18" length="2.41" shape="919.73,1691.24 921.21,1691.41 921.95,1691.95"/>
    </edge>
    <edge id=":2349482107_13" function="internal">