<?xml version="1.0" encoding="UTF-8"?>

<!-- generated on Thu Apr 13 01:08:18 2017 by SUMO polyconvert Version 0.28.0
<?xml version="1.0" encoding="UTF-8"?>

<configuration xmlns:xsi="http://www.w3.org/2001/XMLSchema-instance" xsi:noNamespaceSchemaLocation="http://sumo.dlr.de/xsd/polyconvertConfiguration.xsd">

    <input>
        <net-file value="map.net.xml"/>
        <osm-files value="map.osm"/>
        <type-file value="typemap.xml"/>
    </input>

    <output>
        <output-file value="map.poly.xml"/>
    </output>

    <processing>
        <poi-layer-offset value="5"/>
    </processing>

</configuration>
-->

<additional xmlns:xsi="http://www.w3.org/2001/XMLSchema-instance" xsi:noNamespaceSchemaLocation="http://sumo.dlr.de/xsd/additional_file.xsd">
    <location netOffset="-584686.74,-4511793.69" convBoundary="-670.33,0.00,4407.96,8176.81" origBoundary="-74.004584,40.752742,-73.943413,40.825925" projParameter="+proj=utm +zone=18 +ellps=WGS84 +datum=WGS84 +units=m +no_defs"/>

    <poly id="108199253" type="tourism" color="207,245,201" fill="1" layer="-2.00" shape="1033.89,2001.86 1019.10,1974.80 974.67,1999.10 977.36,2003.96 957.11,2015.07 960.41,2021.02 954.60,2024.21 951.81,2019.14 947.49,2021.51 959.25,2042.78 1033.89,2001.86"/>
    <poly id="108199259" type="amenity" color="237,199,199" fill="1" layer="-1.00" shape="865.12,2179.96 1106.43,2049.55 1030.56,1910.25 789.54,2039.73 865.12,2179.96"/>
    <poly id="108199260" type="tourism" color="207,245,201" fill="1" layer="-2.00" shape="918.32,2083.40 898.12,2046.27 919.54,2033.90 930.42,2032.67 941.29,2032.79 956.71,2040.32 965.94,2057.16 918.32,2083.40"/>
    <poly id="108200129" type="parking" color="184,184,179" fill="1" layer="-1.00" shape="930.45,2196.57 999.22,2329.62 1152.01,2248.36 1152.68,2238.35 1085.96,2112.85 1033.80,2142.67 1028.08,2144.01 1022.22,2147.17 1018.69,2149.06 1014.42,2153.00 930.45,2196.57"/>
    <poly id="109269254" type="leisure" color="207,245,201" fill="1" layer="-2.00" shape="1224.41,1743.91 1221.29,1742.23 1218.39,1740.20 1215.74,1737.84 1213.38,1735.21 1211.36,1732.32 1209.67,1729.21 1208.36,1725.92 1207.45,1722.52 1206.93,1719.02 1206.82,1715.49 1207.12,1711.98 1207.84,1708.52 1208.94,1705.17 1210.43,1701.96 1212.29,1698.95 1213.40,1697.46 1215.16,1695.43 1217.19,1693.49 1218.98,1692.03 1222.59,1689.70 1226.50,1687.89 1230.62,1686.66 1234.88,1686.01 1239.18,1685.96 1243.45,1686.52 1247.60,1687.67 1251.55,1689.38 1255.21,1691.64 1258.51,1694.38 1261.40,1697.56 1263.08,1699.91 1264.06,1701.55 1265.98,1705.70 1267.24,1709.96 1267.85,1714.37 1267.82,1718.81 1267.13,1723.21 1265.81,1727.46 1263.88,1731.46 1261.39,1735.15 1258.38,1738.44 1254.92,1741.25 1251.09,1743.54 1246.97,1745.23 1242.64,1746.32 1238.20,1746.76 1233.74,1746.57 1230.71,1746.05 1228.22,1745.38 1224.41,1743.91"/>
    <poly id="109269255" type="water" color="181,209,209" fill="1" layer="-4.00" shape="1218.97,1703.64 1224.66,1707.48 1223.72,1711.08 1223.00,1714.46 1222.97,1717.39 1223.84,1720.55 1225.60,1724.18 1227.69,1726.75 1230.52,1729.36 1227.87,1735.55 1224.14,1732.97 1221.67,1731.13 1219.67,1728.18 1218.12,1725.45 1216.79,1722.74 1215.92,1719.56 1215.96,1716.63 1216.01,1712.12 1216.27,1708.74 1218.97,1703.64"/>
    <poly id="109269257" type="water" color="181,209,209" fill="1" layer="-4.00" shape="1252.46,1711.41 1258.39,1708.55 1259.26,1711.72 1259.44,1715.78 1258.93,1719.84 1258.21,1723.88 1256.58,1727.47 1253.60,1730.60 1247.89,1735.26 1242.43,1737.23 1238.81,1737.65 1235.19,1737.38 1236.85,1730.41 1239.80,1730.22 1242.98,1729.58 1245.48,1728.48 1248.61,1725.98 1250.97,1722.68 1252.16,1718.86 1252.58,1715.65 1252.46,1711.41"/>
    <poly id="109269258" type="water" color="181,209,209" fill="1" layer="-4.00" shape="1248.91,1705.97 1245.99,1703.68 1243.07,1702.06 1240.58,1701.58 1236.51,1701.30 1233.31,1702.05 1230.38,1703.26 1228.11,1703.47 1224.53,1698.91 1226.82,1697.58 1231.82,1695.62 1235.00,1694.75 1237.04,1694.77 1242.02,1695.06 1245.86,1696.01 1249.69,1697.40 1253.94,1701.06 1255.29,1702.20 1248.91,1705.97"/>
    <poly id="109269259" type="building" color="255,230,230" fill="1" layer="-1.00" shape="1234.14,1721.27 1231.06,1716.03 1231.49,1712.99 1237.90,1709.39 1240.74,1710.49 1243.91,1715.94 1242.92,1719.39 1237.73,1722.02 1234.14,1721.27"/>
    <poly id="109269259#1" type="historic" color="128,255,128" fill="1" layer="-1.00" shape="1234.14,1721.27 1231.06,1716.03 1231.49,1712.99 1237.90,1709.39 1240.74,1710.49 1243.91,1715.94 1242.92,1719.39 1237.73,1722.02 1234.14,1721.27"/>
    <poly id="109269297" type="building" color="255,230,230" fill="1" layer="-1.00" shape="1218.93,1653.02 1222.99,1651.81 1226.27,1651.12 1231.36,1650.71 1237.34,1650.46 1242.29,1650.68 1239.87,1626.67 1212.67,1641.71 1218.93,1653.02"/>
    <poly id="109269297#1" type="tourism" color="207,245,201" fill="1" layer="-2.00" shape="1218.93,1653.02 1222.99,1651.81 1226.27,1651.12 1231.36,1650.71 1237.34,1650.46 1242.29,1650.68 1239.87,1626.67 1212.67,1641.71 1218.93,1653.02"/>
    <poly id="117994217" type="tourism" color="207,245,201" fill="1" layer="-2.00" shape="885.34,2184.55 919.06,2244.36 926.20,2240.65 971.72,2216.77 1050.93,2174.54 1033.80,2142.67 1014.42,2153.00 1002.87,2131.54 998.94,2123.86 945.71,2151.91 940.46,2154.67 903.56,2174.68 885.34,2184.55"/>
    <poly id="128582381" type="leisure" color="207,245,201" fill="1" layer="-2.00" shape="1577.88,1747.22 1583.80,1745.03 1591.31,1741.51 1597.24,1737.75 1609.76,1725.10 1634.84,1743.67 1625.56,1755.44 1634.53,1762.74 1643.28,1769.86 1648.64,1765.47 1674.34,1785.10 1676.78,1789.42 1677.18,1794.16 1677.11,1800.70 1675.90,1807.00 1673.10,1813.96 1661.33,1813.37 1656.12,1813.77 1649.09,1815.26 1645.00,1816.79 1637.69,1821.21 1630.40,1825.65 1625.59,1830.54 1621.90,1836.59 1620.05,1839.50 1616.18,1841.49 1611.76,1831.97 1606.63,1825.81 1603.52,1820.14 1598.60,1815.35 1590.72,1810.74 1584.64,1808.41 1574.93,1806.72 1571.09,1805.33 1567.94,1803.71 1565.71,1800.76 1564.63,1796.91 1564.66,1793.75 1566.97,1789.72 1570.17,1787.73 1574.72,1785.75 1578.57,1785.12 1582.68,1782.69 1585.42,1780.23 1587.72,1777.55 1587.06,1775.97 1583.44,1775.70 1579.37,1775.20 1575.30,1775.15 1571.44,1775.79 1568.27,1775.75 1564.65,1775.03 1561.06,1772.51 1559.74,1769.57 1558.20,1765.03 1558.25,1761.20 1559.87,1758.07 1561.73,1754.48 1565.15,1751.81 1569.25,1750.05 1577.88,1747.22"/>
    <poly id="150520452" type="building" color="255,230,230" fill="1" layer="-1.00" shape="1258.16,1806.43 1262.30,1814.10 1267.58,1811.28 1271.60,1818.75 1272.61,1818.21 1283.97,1839.31 1283.09,1839.78 1287.11,1847.25 1264.63,1859.26 1260.62,1851.80 1259.72,1852.28 1248.36,1831.18 1249.23,1830.71 1245.27,1823.35 1250.56,1820.53 1246.36,1812.72 1258.16,1806.43"/>
    <poly id="150520452#1" type="tourism" color="207,245,201" fill="1" layer="-2.00" shape="1258.16,1806.43 1262.30,1814.10 1267.58,1811.28 1271.60,1818.75 1272.61,1818.21 1283.97,1839.31 1283.09,1839.78 1287.11,1847.25 1264.63,1859.26 1260.62,1851.80 1259.72,1852.28 1248.36,1831.18 1249.23,1830.71 1245.27,1823.35 1250.56,1820.53 1246.36,1812.72 1258.16,1806.43"/>
    <poly id="153232734" type="historic" color="128,255,128" fill="1" layer="-1.00" shape="1310.65,1737.94 1311.85,1738.25 1311.36,1740.26 1315.39,1741.26 1315.80,1739.61 1317.72,1740.08 1319.02,1734.84 1317.45,1734.44 1318.08,1731.89 1313.73,1730.82 1313.29,1732.63 1312.00,1732.33 1311.81,1733.03 1311.65,1733.65 1309.32,1733.50 1306.74,1734.18 1308.81,1735.98 1310.86,1737.03 1310.74,1737.54 1310.65,1737.94"/>
    <poly id="154416662" type="building" color="255,230,230" fill="1" layer="-1.00" shape="1231.90,2152.66 1233.49,2085.93 1254.72,2074.46 1285.47,2096.07 1319.41,2077.87 1330.13,2097.29 1284.44,2121.55 1285.65,2123.59 1231.90,2152.66"/>
    <poly id="154416663" type="tourism" color="207,245,201" fill="1" layer="-2.00" shape="1191.28,2108.32 1154.85,2126.85 1191.18,2195.37 1191.28,2108.32"/>
    <poly id="167923911" type="building" color="255,230,230" fill="1" layer="-1.00" shape="1183.67,1761.11 1190.86,1757.33 1194.64,1762.07 1197.76,1764.98 1201.08,1767.42 1200.13,1803.26 1188.22,1809.57 1121.00,1845.24 1108.72,1822.26 1072.98,1755.37 1060.26,1731.57 1135.27,1691.18 1190.24,1662.19 1192.26,1665.54 1185.18,1671.14 1187.91,1673.48 1185.80,1676.60 1182.27,1682.11 1180.11,1687.00 1177.89,1692.90 1176.62,1697.96 1175.48,1703.49 1174.76,1710.35 1174.71,1715.73 1174.99,1721.55 1176.18,1727.90 1177.40,1732.85 1170.81,1736.99 1177.53,1749.60 1183.67,1761.11"/>
    <poly id="259888549" type="landuse" color="194,194,130" fill="1" layer="-3.00" shape="1310.74,1737.54 1304.80,1735.94 1303.60,1735.18 1303.16,1734.50 1303.11,1733.80 1303.18,1733.02 1303.64,1732.25 1304.21,1731.83 1304.62,1731.67 1305.83,1731.68 1311.81,1733.03 1311.65,1733.65 1309.32,1733.50 1306.74,1734.18 1308.81,1735.98 1310.86,1737.03 1310.74,1737.54"/>
    <poly id="262349419" type="building" color="255,230,230" fill="1" layer="-1.00" shape="1022.71,1858.76 1029.51,1871.38 1029.92,1871.16 1033.79,1878.34 1034.79,1877.81 1038.01,1883.79 1052.52,1876.03 1048.51,1868.59 1064.71,1859.93 1064.28,1859.14 1068.74,1856.76 1069.17,1857.55 1086.22,1848.43 1086.95,1849.77 1102.21,1841.61 1095.62,1829.36 1094.76,1829.81 1090.92,1822.70 1090.19,1823.10 1086.92,1817.03 1072.58,1824.69 1076.53,1832.01 1060.03,1840.82 1060.51,1841.72 1056.06,1844.10 1055.58,1843.21 1038.68,1852.24 1037.84,1850.68 1022.71,1858.76"/>
    <poly id="262349420" type="building" color="255,230,230" fill="1" layer="-1.00" shape="1052.65,1749.85 1059.41,1762.49 1059.00,1762.71 1062.85,1769.90 1061.85,1770.43 1065.06,1776.42 1050.53,1784.14 1046.53,1776.70 1030.31,1785.31 1029.88,1784.51 1025.42,1786.88 1025.85,1787.68 1008.77,1796.74 1009.49,1798.09 994.20,1806.21 987.63,1793.94 988.49,1793.49 984.67,1786.36 985.41,1785.97 982.15,1779.89 996.52,1772.26 1000.44,1779.60 1016.96,1770.82 1017.43,1771.72 1021.89,1769.35 1021.42,1768.46 1038.34,1759.47 1037.50,1757.91 1052.65,1749.85"/>
    <poly id="262350725" type="tourism" color="207,245,201" fill="1" layer="-2.00" shape="1022.71,1858.76 1020.53,1860.05 992.37,1807.21 994.20,1806.21 1009.49,1798.09 1008.77,1796.74 1025.85,1787.68 1025.42,1786.88 1029.88,1784.51 1030.31,1785.31 1046.53,1776.70 1050.53,1784.14 1065.06,1776.42 1061.85,1770.43 1062.85,1769.90 1059.00,1762.71 1059.41,1762.49 1072.98,1755.37 1108.72,1822.26 1095.62,1829.36 1094.76,1829.81 1090.92,1822.70 1090.19,1823.10 1086.92,1817.03 1072.58,1824.69 1076.53,1832.01 1060.03,1840.82 1060.51,1841.72 1056.06,1844.10 1055.58,1843.21 1038.68,1852.24 1037.84,1850.68 1022.71,1858.76"/>
    <poly id="265147564" type="building" color="255,230,230" fill="1" layer="-1.00" shape="1314.87,1641.73 1320.09,1651.46 1321.13,1653.38 1326.82,1650.33 1327.75,1649.83 1333.45,1646.77 1332.40,1644.85 1327.80,1636.25 1326.33,1637.04 1323.34,1631.47 1319.05,1623.49 1316.09,1625.09 1315.35,1625.48 1314.53,1625.91 1313.50,1626.48 1306.20,1630.39 1302.86,1632.19 1299.96,1626.82 1298.24,1623.59 1297.24,1624.09 1296.50,1622.73 1296.48,1621.35 1296.38,1620.66 1295.97,1619.34 1295.67,1618.71 1295.31,1618.12 1294.44,1617.05 1293.93,1616.59 1292.78,1615.80 1302.11,1610.79 1300.92,1608.58 1304.50,1606.65 1300.80,1599.75 1298.87,1600.79 1296.92,1597.17 1270.08,1611.58 1272.12,1615.37 1270.31,1616.35 1271.54,1618.64 1270.97,1618.95 1273.89,1624.40 1275.79,1623.39 1276.43,1624.60 1273.51,1626.15 1272.96,1626.72 1272.92,1627.41 1273.22,1628.29 1275.09,1631.76 1273.78,1632.47 1273.21,1633.13 1273.32,1633.85 1275.37,1637.67 1274.26,1638.26 1273.69,1638.76 1273.76,1639.71 1275.83,1643.56 1274.68,1644.18 1274.16,1644.64 1274.08,1645.64 1276.13,1649.46 1274.26,1650.47 1276.02,1653.71 1277.57,1656.65 1276.66,1657.09 1281.75,1666.59 1282.63,1666.09 1284.13,1668.87 1286.76,1671.84 1291.13,1669.50 1292.06,1669.00 1297.82,1665.90 1304.16,1662.50 1298.77,1652.55 1302.00,1650.79 1308.64,1647.24 1311.88,1645.52 1310.96,1643.83 1312.90,1642.78 1314.87,1641.73"/>
    <poly id="265151750" type="building" color="255,230,230" fill="1" layer="-1.00" shape="1026.94,1597.63 1017.21,1602.91 1016.35,1601.30 1010.02,1604.72 989.76,1615.68 990.63,1617.29 980.66,1622.68 970.84,1627.99 969.97,1626.38 937.51,1643.95 932.23,1634.19 928.54,1636.19 942.94,1662.79 1035.19,1612.88 1026.94,1597.63"/>
    <poly id="265152145" type="building" color="255,230,230" fill="1" layer="-1.00" shape="1024.03,1699.55 1021.29,1700.99 1020.74,1699.96 1018.47,1701.16 1016.19,1696.85 1017.10,1696.39 1015.59,1693.43 1014.62,1693.91 1013.48,1691.74 1012.62,1690.12 1011.62,1688.35 1003.02,1672.23 991.44,1678.40 1000.95,1696.23 1001.80,1697.86 1003.01,1700.15 1002.12,1700.64 1002.29,1700.94 1003.70,1703.54 1004.56,1703.07 1007.32,1708.28 1001.92,1711.11 1004.78,1716.50 1010.49,1727.31 1013.49,1725.73 1014.29,1727.22 1017.45,1725.51 1016.99,1724.65 1026.86,1719.32 1027.32,1720.20 1030.01,1718.75 1029.22,1717.28 1032.50,1715.56 1024.03,1699.55"/>
    <poly id="265152147" type="building" color="255,230,230" fill="1" layer="-1.00" shape="1111.81,1641.37 1098.19,1616.10 1064.22,1634.40 1072.19,1649.19 1077.84,1659.67 1101.28,1647.04 1104.78,1645.16 1111.81,1641.37"/>
    <poly id="265152148" type="building" color="255,230,230" fill="1" layer="-1.00" shape="1109.08,1653.13 1105.58,1655.01 1101.28,1647.04 1077.84,1659.67 1071.05,1663.34 1057.59,1670.60 1056.39,1671.24 1059.33,1676.70 1070.29,1697.03 1118.69,1670.96 1109.08,1653.13"/>
    <poly id="265152149" type="building" color="255,230,230" fill="1" layer="-1.00" shape="1064.22,1634.40 1057.43,1638.07 1065.37,1652.79 1068.20,1658.05 1071.48,1656.28 1068.69,1651.09 1072.19,1649.19 1064.22,1634.40"/>
    <poly id="265152150" type="building" color="255,230,230" fill="1" layer="-1.00" shape="1056.90,1637.09 1050.16,1640.73 1054.24,1648.31 1054.97,1649.65 1058.62,1656.43 1065.37,1652.79 1057.43,1638.07 1056.90,1637.09"/>
    <poly id="265152151" type="building" color="255,230,230" fill="1" layer="-1.00" shape="1054.97,1649.65 1052.30,1651.08 1051.58,1649.74 1054.24,1648.31 1050.16,1640.73 1043.45,1644.35 1051.90,1660.05 1058.62,1656.43 1054.97,1649.65"/>
    <poly id="265152152" type="building" color="255,230,230" fill="1" layer="-1.00" shape="1038.18,1681.01 1037.56,1679.85 1036.71,1679.78 1033.15,1673.17 1033.92,1672.70 1034.19,1671.71 1033.66,1670.72 1037.35,1668.73 1038.59,1669.31 1040.82,1668.12 1042.26,1670.79 1043.59,1670.88 1047.51,1668.77 1048.94,1669.16 1051.00,1668.04 1051.16,1666.93 1054.61,1665.07 1051.90,1660.05 1043.45,1644.35 1039.88,1646.27 1038.56,1646.15 1036.39,1647.33 1035.84,1648.45 1031.22,1650.94 1030.13,1650.69 1027.90,1651.90 1027.43,1652.98 1016.07,1659.10 1014.84,1658.93 1012.64,1660.13 1011.98,1661.31 1007.49,1663.72 1006.20,1663.60 1004.04,1664.76 1003.51,1665.87 1000.35,1667.38 1003.02,1672.23 1011.62,1688.35 1014.72,1686.65 1015.67,1687.00 1017.62,1685.94 1018.25,1684.75 1022.26,1682.59 1022.56,1681.25 1021.10,1678.55 1023.80,1677.09 1023.82,1676.02 1029.13,1673.17 1028.04,1675.03 1029.06,1675.10 1030.04,1674.84 1033.60,1681.47 1033.02,1682.30 1033.64,1683.45 1038.18,1681.01"/>
    <poly id="265152153" type="building" color="255,230,230" fill="1" layer="-1.00" shape="1059.33,1676.70 1055.77,1678.61 1054.27,1678.45 1052.88,1679.20 1051.95,1680.73 1049.69,1681.95 1049.25,1683.23 1050.86,1686.22 1046.45,1688.60 1046.16,1689.28 1046.46,1689.84 1043.25,1691.58 1043.85,1689.64 1043.09,1689.37 1042.18,1689.58 1038.66,1683.07 1038.93,1682.40 1038.18,1681.01 1033.64,1683.45 1034.39,1684.85 1035.41,1684.83 1038.92,1691.33 1037.83,1692.00 1037.53,1693.05 1040.00,1693.33 1036.39,1695.28 1035.19,1694.66 1031.06,1696.89 1029.45,1693.91 1028.20,1693.53 1022.46,1696.62 1024.03,1699.55 1032.50,1715.56 1033.27,1717.01 1070.29,1697.03 1059.33,1676.70"/>
    <poly id="265152154" type="building" color="255,230,230" fill="1" layer="-1.00" shape="1002.12,1700.64 1003.01,1700.15 1001.80,1697.86 1000.95,1696.23 991.44,1678.40 989.13,1674.07 983.40,1677.17 997.60,1703.51 1002.29,1700.94 1002.12,1700.64"/>
    <poly id="265152155" type="building" color="255,230,230" fill="1" layer="-1.00" shape="1127.09,1633.14 1118.26,1637.89 1115.86,1639.19 1129.76,1664.98 1130.28,1665.94 1141.51,1659.89 1127.09,1633.14"/>
    <poly id="265152155#1" type="tourism" color="207,245,201" fill="1" layer="-2.00" shape="1127.09,1633.14 1118.26,1637.89 1115.86,1639.19 1129.76,1664.98 1130.28,1665.94 1141.51,1659.89 1127.09,1633.14"/>
    <poly id="265152156" type="building" color="255,230,230" fill="1" layer="-1.00" shape="982.86,1676.17 941.16,1698.65 941.72,1699.68 954.96,1724.25 955.53,1725.29 961.01,1722.34 970.73,1740.36 975.55,1749.33 1011.77,1729.81 1010.49,1727.31 1004.78,1716.50 1001.92,1711.11 997.60,1703.51 983.40,1677.17 982.86,1676.17"/>
    <poly id="265152158" type="building" color="255,230,230" fill="1" layer="-1.00" shape="1127.09,1633.14 1141.51,1659.89 1179.32,1639.51 1164.90,1612.75 1138.19,1627.15 1127.09,1633.14"/>
    <poly id="265152159" type="building" color="255,230,230" fill="1" layer="-1.00" shape="1115.86,1639.19 1111.81,1641.37 1104.78,1645.16 1109.08,1653.13 1118.69,1670.96 1129.76,1664.98 1115.86,1639.19"/>
    <poly id="265152160" type="building" color="255,230,230" fill="1" layer="-1.00" shape="941.72,1699.68 940.35,1700.42 939.47,1698.77 935.66,1700.83 949.80,1727.04 954.96,1724.25 941.72,1699.68"/>
    <poly id="265152161" type="building" color="255,230,230" fill="1" layer="-1.00" shape="970.73,1740.36 968.76,1741.42 960.62,1726.32 951.94,1731.00 964.90,1755.07 975.55,1749.33 970.73,1740.36"/>
    <poly id="265152162" type="building" color="255,230,230" fill="1" layer="-1.00" shape="1065.37,1652.79 1058.62,1656.43 1051.90,1660.05 1054.61,1665.07 1057.59,1670.60 1071.05,1663.34 1068.20,1658.05 1065.37,1652.79"/>
    <poly id="265343855" type="building" color="255,230,230" fill="1" layer="-1.00" shape="1175.34,2058.16 1174.40,2077.12 1173.82,2077.43 1166.11,2063.13 1154.86,2069.21 1162.94,2084.20 1156.70,2087.56 1148.62,2072.57 1139.69,2077.38 1139.10,2077.70 1153.76,2104.89 1187.95,2086.47 1189.15,2050.72 1175.34,2058.16"/>
    <poly id="265343855#1" type="tourism" color="207,245,201" fill="1" layer="-2.00" shape="1175.34,2058.16 1174.40,2077.12 1173.82,2077.43 1166.11,2063.13 1154.86,2069.21 1162.94,2084.20 1156.70,2087.56 1148.62,2072.57 1139.69,2077.38 1139.10,2077.70 1153.76,2104.89 1187.95,2086.47 1189.15,2050.72 1175.34,2058.16"/>
    <poly id="265343856" type="building" color="255,230,230" fill="1" layer="-1.00" shape="1189.15,2050.72 1189.53,2039.49 1176.05,2046.75 1166.83,2029.64 1165.78,2030.21 1159.62,2033.54 1158.00,2033.12 1125.37,2050.70 1124.73,2051.79 1135.00,2070.83 1136.39,2071.27 1139.69,2077.38 1148.62,2072.57 1153.28,2070.04 1154.86,2069.21 1166.11,2063.13 1175.34,2058.16 1189.15,2050.72"/>
    <poly id="265343858" type="building" color="255,230,230" fill="1" layer="-1.00" shape="1369.14,1989.46 1339.65,1934.32 1274.44,1969.19 1280.24,1980.03 1281.05,1979.60 1284.21,1985.49 1286.18,1984.43 1288.04,1987.91 1302.75,1980.04 1299.17,1973.35 1305.75,1969.83 1309.29,1976.44 1327.37,1966.78 1323.17,1958.93 1325.13,1957.87 1325.80,1959.11 1330.85,1956.41 1344.99,1982.84 1343.60,1983.59 1344.72,1985.68 1339.19,1988.65 1335.53,1981.81 1317.62,1991.38 1321.18,1998.03 1314.39,2001.66 1310.95,1995.22 1296.36,2003.03 1298.16,2006.39 1296.00,2007.54 1304.75,2023.88 1341.79,2004.09 1369.14,1989.46"/>
    <poly id="265343859" type="building" color="255,230,230" fill="1" layer="-1.00" shape="1190.24,2018.44 1187.99,2016.93 1166.28,2028.63 1166.83,2029.64 1176.05,2046.75 1189.53,2039.49 1190.24,2018.44"/>
    <poly id="265343861" type="building" color="255,230,230" fill="1" layer="-1.00" shape="1279.62,1876.64 1276.96,1878.05 1283.01,1889.32 1285.67,1887.90 1286.75,1889.86 1291.04,1897.80 1288.33,1899.26 1294.56,1910.81 1297.28,1909.36 1301.58,1917.30 1302.68,1919.28 1300.02,1920.70 1306.08,1931.96 1308.74,1930.54 1329.99,1919.15 1300.86,1865.25 1279.62,1876.64"/>
    <poly id="265344251" type="building" color="255,230,230" fill="1" layer="-1.00" shape="1194.82,1867.30 1195.31,1849.83 1184.39,1855.68 1183.46,1853.95 1176.16,1857.87 1176.96,1859.35 1169.84,1863.17 1173.55,1870.09 1172.06,1870.89 1174.90,1876.16 1186.36,1870.01 1187.12,1871.43 1194.82,1867.30"/>
    <poly id="265344252" type="building" color="255,230,230" fill="1" layer="-1.00" shape="1194.56,1876.33 1194.82,1867.30 1187.12,1871.43 1161.53,1885.14 1165.24,1892.06 1166.53,1891.37 1194.56,1876.33"/>
    <poly id="265344253" type="building" color="255,230,230" fill="1" layer="-1.00" shape="1166.53,1891.37 1170.27,1898.36 1164.73,1901.32 1171.82,1914.56 1193.83,1902.76 1194.56,1876.33 1166.53,1891.37"/>
    <poly id="265344254" type="building" color="255,230,230" fill="1" layer="-1.00" shape="1141.68,1930.71 1140.80,1929.07 1144.36,1927.15 1130.84,1901.94 1114.75,1910.57 1120.43,1921.17 1104.87,1929.52 1107.29,1934.03 1105.81,1934.81 1109.71,1942.08 1111.05,1941.38 1113.44,1945.85 1116.44,1944.25 1141.68,1930.71"/>
    <poly id="265344255" type="building" color="255,230,230" fill="1" layer="-1.00" shape="1173.55,1870.09 1169.84,1863.17 1176.96,1859.35 1176.16,1857.87 1183.46,1853.95 1184.39,1855.68 1195.31,1849.83 1195.73,1834.40 1194.22,1833.22 1149.79,1857.03 1158.48,1873.24 1160.08,1876.21 1160.53,1877.07 1172.06,1870.89 1173.55,1870.09"/>
    <poly id="265344256" type="building" color="255,230,230" fill="1" layer="-1.00" shape="1159.25,1891.12 1146.59,1897.90 1142.28,1889.86 1138.76,1883.31 1134.58,1875.50 1130.29,1867.48 1125.06,1870.29 1139.54,1897.28 1130.84,1901.94 1144.36,1927.15 1145.84,1929.92 1172.42,1915.68 1171.82,1914.56 1164.73,1901.32 1159.25,1891.12"/>
    <poly id="265344257" type="building" color="255,230,230" fill="1" layer="-1.00" shape="1160.08,1876.21 1158.54,1877.03 1156.95,1874.05 1158.48,1873.24 1149.79,1857.03 1130.29,1867.48 1134.58,1875.50 1138.02,1873.67 1139.47,1876.38 1142.36,1874.84 1145.08,1879.92 1138.76,1883.31 1142.28,1889.86 1161.79,1879.41 1160.53,1877.07 1160.08,1876.21"/>
    <poly id="265344258" type="building" color="255,230,230" fill="1" layer="-1.00" shape="1083.20,1896.15 1052.42,1912.64 1067.97,1941.66 1084.48,1932.81 1088.89,1930.44 1086.15,1925.34 1096.02,1920.04 1091.82,1912.21 1083.20,1896.15"/>
    <poly id="265344259" type="building" color="255,230,230" fill="1" layer="-1.00" shape="1139.54,1897.28 1125.06,1870.29 1096.19,1885.76 1110.67,1912.75 1114.00,1910.97 1114.75,1910.57 1130.84,1901.94 1139.54,1897.28"/>
    <poly id="265347579" type="amenity" color="237,199,199" fill="1" layer="-1.00" shape="1608.84,2197.09 1611.78,2196.28 1628.77,2191.58 1626.75,2184.27 1623.44,2185.19 1620.87,2185.89 1605.01,2190.28 1592.54,2183.51 1597.82,2182.25 1593.87,2168.25 1587.13,2170.02 1594.45,2155.32 1608.82,2151.06 1607.15,2144.02 1589.60,2149.43 1580.82,2164.99 1566.44,2169.47 1574.29,2196.40 1578.28,2195.20 1582.37,2194.05 1585.73,2192.55 1588.59,2191.29 1592.13,2192.43 1591.18,2194.97 1591.49,2197.52 1592.93,2199.89 1595.23,2201.58 1597.91,2201.41 1600.11,2200.75 1602.14,2198.86 1604.38,2199.70 1606.72,2197.32 1607.36,2198.64 1608.84,2197.09"/>
    <poly id="265347579#1" type="building" color="255,230,230" fill="1" layer="-1.00" shape="1608.84,2197.09 1611.78,2196.28 1628.77,2191.58 1626.75,2184.27 1623.44,2185.19 1620.87,2185.89 1605.01,2190.28 1592.54,2183.51 1597.82,2182.25 1593.87,2168.25 1587.13,2170.02 1594.45,2155.32 1608.82,2151.06 1607.15,2144.02 1589.60,2149.43 1580.82,2164.99 1566.44,2169.47 1574.29,2196.40 1578.28,2195.20 1582.37,2194.05 1585.73,2192.55 1588.59,2191.29 1592.13,2192.43 1591.18,2194.97 1591.49,2197.52 1592.93,2199.89 1595.23,2201.58 1597.91,2201.41 1600.11,2200.75 1602.14,2198.86 1604.38,2199.70 1606.72,2197.32 1607.36,2198.64 1608.84,2197.09"/>
    <poly id="265347586" type="amenity" color="237,199,199" fill="1" layer="-1.00" shape="1654.22,1751.76 1650.48,1748.66 1650.12,1749.09 1644.52,1744.45 1644.88,1744.02 1641.23,1740.98 1629.93,1754.61 1633.58,1757.65 1634.00,1757.13 1639.60,1761.78 1639.18,1762.29 1642.92,1765.38 1654.22,1751.76"/>
    <poly id="265347586#1" type="building" color="255,230,230" fill="1" layer="-1.00" shape="1654.22,1751.76 1650.48,1748.66 1650.12,1749.09 1644.52,1744.45 1644.88,1744.02 1641.23,1740.98 1629.93,1754.61 1633.58,1757.65 1634.00,1757.13 1639.60,1761.78 1639.18,1762.29 1642.92,1765.38 1654.22,1751.76"/>
    <poly id="265347589" type="building" color="255,230,230" fill="1" layer="-1.00" shape="1742.11,1964.91 1734.30,1973.05 1738.41,1977.00 1746.21,1968.85 1742.11,1964.91"/>
    <poly id="265347592" type="building" color="255,230,230" fill="1" layer="-1.00" shape="1336.00,1842.13 1331.26,1832.81 1321.13,1837.96 1325.87,1847.27 1326.40,1847.00 1336.00,1842.13"/>
    <poly id="265353547" type="building" color="255,230,230" fill="1" layer="-1.00" shape="871.88,1678.98 866.74,1681.79 862.84,1674.66 855.18,1678.85 857.18,1682.52 857.11,1683.82 867.54,1702.93 868.03,1703.84 876.31,1699.33 881.46,1696.51 888.16,1692.86 895.07,1689.08 881.63,1664.49 878.23,1658.24 862.28,1666.95 863.89,1669.89 862.40,1670.70 862.73,1671.32 864.22,1670.49 865.70,1673.18 869.43,1671.14 877.63,1686.16 876.22,1686.93 871.88,1678.98"/>
    <poly id="265353663" type="building" color="255,230,230" fill="1" layer="-1.00" shape="902.44,1719.51 896.24,1722.86 900.91,1731.49 904.14,1737.43 907.55,1743.73 910.95,1741.90 909.97,1740.10 912.77,1738.58 912.06,1737.28 902.44,1719.51"/>
    <poly id="265353664" type="building" color="255,230,230" fill="1" layer="-1.00" shape="904.14,1737.43 899.29,1740.06 898.62,1738.82 896.06,1734.11 900.91,1731.49 896.24,1722.86 873.66,1735.09 874.34,1736.33 878.33,1743.72 883.00,1741.19 886.76,1748.15 882.10,1750.67 885.91,1757.71 908.49,1745.48 907.55,1743.73 904.14,1737.43"/>
    <poly id="265353665" type="building" color="255,230,230" fill="1" layer="-1.00" shape="906.26,1785.29 910.46,1783.00 898.78,1761.43 894.58,1763.71 897.32,1768.77 902.13,1777.64 906.26,1785.29"/>
    <poly id="265353666" type="building" color="255,230,230" fill="1" layer="-1.00" shape="902.13,1777.64 897.03,1780.42 891.44,1770.10 892.72,1769.42 893.49,1770.84 897.32,1768.77 894.58,1763.71 878.18,1772.59 887.34,1789.50 885.07,1790.73 888.20,1796.51 906.87,1786.40 906.26,1785.29 902.13,1777.64"/>
    <poly id="265353667" type="building" color="255,230,230" fill="1" layer="-1.00" shape="874.34,1736.33 873.58,1736.75 872.90,1735.50 863.04,1740.84 863.71,1742.08 862.78,1742.58 870.07,1756.02 875.88,1752.87 881.65,1763.54 885.90,1761.24 879.87,1750.11 881.36,1749.30 878.33,1743.72 874.34,1736.33"/>
    <poly id="265353668" type="building" color="255,230,230" fill="1" layer="-1.00" shape="874.39,1771.01 870.65,1773.03 884.47,1798.53 888.20,1796.51 885.07,1790.73 874.39,1771.01"/>
    <poly id="265353683" type="building" color="255,230,230" fill="1" layer="-1.00" shape="918.61,1733.73 912.06,1737.28 912.77,1738.58 917.00,1746.38 923.54,1742.83 918.61,1733.73"/>
    <poly id="265353685" type="building" color="255,230,230" fill="1" layer="-1.00" shape="908.98,1715.96 902.44,1719.51 912.06,1737.28 918.61,1733.73 908.98,1715.96"/>
    <poly id="265353686" type="building" color="255,230,230" fill="1" layer="-1.00" shape="902.11,1754.44 916.57,1781.14 938.00,1769.54 923.54,1742.83 917.00,1746.38 902.11,1754.44"/>
    <poly id="265353690" type="building" color="255,230,230" fill="1" layer="-1.00" shape="870.65,1773.03 850.45,1783.98 864.26,1809.48 884.47,1798.53 870.65,1773.03"/>
    <poly id="265354528" type="amenity" color="237,199,199" fill="1" layer="-1.00" shape="1081.88,2078.42 1029.81,2106.45 1066.02,2173.49 1067.50,2176.24 1093.26,2162.45 1119.60,2148.26 1118.49,2145.99 1117.46,2144.05 1081.88,2078.42"/>
    <poly id="265354528#1" type="building" color="255,230,230" fill="1" layer="-1.00" shape="1081.88,2078.42 1029.81,2106.45 1066.02,2173.49 1067.50,2176.24 1093.26,2162.45 1119.60,2148.26 1118.49,2145.99 1117.46,2144.05 1081.88,2078.42"/>
    <poly id="265354529" type="building" color="255,230,230" fill="1" layer="-1.00" shape="971.81,2054.21 967.02,2045.27 974.45,2041.24 1018.86,2017.15 1037.19,2007.20 1008.94,1955.20 1002.62,1943.48 883.67,2008.01 886.42,2013.07 895.78,2008.00 900.47,2016.66 898.51,2017.71 902.41,2024.91 903.05,2024.55 908.27,2034.16 905.06,2035.89 906.22,2038.05 896.45,2043.36 908.31,2065.94 918.17,2084.11 971.81,2054.21"/>
    <poly id="265354530" type="building" color="255,230,230" fill="1" layer="-1.00" shape="911.98,2079.66 876.56,2098.63 884.59,2113.62 920.01,2094.65 914.31,2084.01 911.98,2079.66"/>
    <poly id="265354531" type="building" color="255,230,230" fill="1" layer="-1.00" shape="1119.02,2029.16 1119.66,2028.82 1120.02,2029.07 1120.60,2029.26 1121.21,2029.27 1121.79,2029.10 1122.30,2028.77 1122.69,2028.31 1122.92,2027.75 1122.98,2027.15 1122.95,2027.04 1134.30,2020.92 1134.73,2021.22 1135.32,2021.41 1135.92,2021.43 1136.51,2021.25 1137.02,2020.93 1137.40,2020.45 1137.64,2019.90 1137.69,2019.29 1137.65,2019.10 1138.38,2018.71 1149.57,2012.67 1150.39,2011.77 1150.65,2010.60 1148.29,2006.21 1153.95,2003.17 1144.69,1986.22 1139.33,1989.16 1126.10,1996.08 1123.62,1997.40 1117.84,2000.50 1115.08,2001.98 1106.94,2006.42 1106.70,2006.55 1106.60,2006.69 1106.15,2007.09 1105.84,2007.61 1105.69,2008.20 1105.73,2008.80 1105.94,2009.36 1106.30,2009.85 1106.81,2010.20 1107.39,2010.39 1107.43,2010.99 1107.63,2011.56 1108.01,2012.04 1108.50,2012.39 1109.08,2012.58 1109.69,2012.59 1109.94,2012.52 1111.61,2015.59 1111.43,2015.76 1111.12,2016.28 1110.97,2016.86 1111.00,2017.46 1111.21,2018.03 1111.58,2018.51 1112.07,2018.86 1112.51,2019.00 1112.20,2019.52 1112.06,2020.11 1112.09,2020.71 1112.30,2021.27 1112.67,2021.76 1113.17,2022.11 1113.75,2022.30 1114.36,2022.31 1114.94,2022.14 1115.10,2022.03 1116.57,2024.73 1116.27,2025.01 1115.96,2025.52 1115.81,2026.11 1115.84,2026.72 1116.05,2027.29 1116.42,2027.76 1116.92,2028.11 1117.49,2028.31 1118.10,2028.31 1118.46,2028.22 1119.02,2029.16"/>