<?xml version="1.0" encoding="UTF-8"?>

<!-- generated on Fri Apr 14 15:57:38 2017 by SUMO duarouter Version 0.28.0
<?xml version="1.0" encoding="UTF-8"?>

<configuration xmlns:xsi="http://www.w3.org/2001/XMLSchema-instance" xsi:noNamespaceSchemaLocation="http://sumo.dlr.de/xsd/duarouterConfiguration.xsd">

    <input>
        <net-file value="map.net.xml"/>
        <trip-files value="trips.trips.xml"/>
    </input>

    <output>
        <output-file value="map.rou.xml"/>
    </output>

    <processing>
        <ignore-errors value="true"/>
    </processing>

    <time>
        <begin value="0"/>
        <end value="3600"/>
    </time>

    <report>
        <no-warnings value="true"/>
        <no-step-log value="true"/>
    </report>

</configuration>
-->

<routes xmlns:xsi="http://www.w3.org/2001/XMLSchema-instance" xsi:noNamespaceSchemaLocation="http://sumo.dlr.de/xsd/routes_file.xsd">
    <vehicle id="1" depart="1.00">
        <route edges="5673018#1 196116975#0 5672399#1"/>
    </vehicle>
    <vehicle id="3" depart="3.00">
        <route edges="46525065#1 46525065#2 46525065#3 420890023 125480074 439801902 460065820 439801901#0 439801901#1 439801903 5670348#0 5670348#1 5670348#2 420276996 420276995#0 420276995#1 420276995#2 452322366"/>
    </vehicle>
    <vehicle id="5" depart="5.00">
        <route edges="5671691#1 5671691#2 460067515#7 420892268 420892267 46525065#2 46525065#3 420890023 125480074 439801902 460065820 439801901#0 439801901#1 439801903 5670348#0 5670348#1 5670348#2"/>
    </vehicle>
    <vehicle id="6" depart="6.00">
        <route edges="5670348#1 5670348#2 420276996 5672399#0 5672399#1 5672399#2 460067515#4 460067515#5 460067515#6 460067515#7 5670938"/>
    </vehicle>
    <vehicle id="8" depart="8.00">
        <route edges="5672399#1 5672399#2 460067515#4 5669002#0 5669002#1 196116975#2 196116975#3 196116975#4 460065822#0 460065822#1 439801902 460065820 439801901#0 439801901#1 439801903 171574337 91383966#0"/>
    </vehicle>
    <vehicle id="9" depart="9.00">
        <route edges="-46579577#0 -420897874 420276996 5672399#0 196116975#1 196116975#2 46579578#0"/>
    </vehicle>
    <vehicle id="11" depart="11.00">
        <route edges="5672399#1 5672399#2 46579579#0"/>
    </vehicle>
    <vehicle id="12" depart="12.00">
        <route edges="5671691#1 5671691#2 460067515#7 420892268 420892267 46525065#2 46525065#3 420890023 125480074 439801902 460065820 439801901#0 439801901#1 439801903 5670348#0 5670348#1 5670348#2 420897874 46579577#0 46579577#1 46579577#2 46579577#3 22946821 128578950 128578947#0 128578947#1 318474882"/>
    </vehicle>
    <vehicle id="13" depart="13.00">
        <route edges="22946813#0 22946813#1 44225601 318476063 330748464#0 330748464#1 330748465#0 330748465#1 22946829 385446610 385446617#0 385446617#1 385446617#2 385446617#3 128578946#0"/>
    </vehicle>
    <vehicle id="14" depart="14.00">
        <route edges="-46579577#3 -46579577#2 -46579577#1 -46579577#0 -420897874 420276996 420276995#0"/>
    </vehicle>
    <vehicle id="15" depart="15.00">
        <route edges="22946813#0 22946813#1 44225601 318476063 330748464#0 330748464#1 330748465#0 330748465#1 22946829 385446610 385446617#0 385446617#1 385446617#2 385446617#3 128578946#0 128578946#1"/>
    </vehicle>
    <vehicle id="16" depart="16.00">
        <route edges="196116975#4 460065822#0 460065822#1 439801902 460065820 167922075#0 167922075#1 -420899373"/>
    </vehicle>
    <vehicle id="18" depart="18.00">
        <route edges="452322366 46579577#3 22946821 128578950 128578947#0 128578947#1 318474882"/>
    </vehicle>
    <vehicle id="19" depart="19.00">
        <route edges="46525065#3"/>
    </vehicle>
    <vehicle id="21" depart="21.00">
        <route edges="460065822#0 460065822#1 439801902 460065820 439801901#0 439801901#1 439801903 5670348#0 5670348#1 5670348#2 420276996 5672399#0 5672399#1 5672399#2 460067515#4 460067515#5 460067515#6 460067515#7 420892268 420892267 420892262 420892266 196117084#2 196117084#3"/>
    </vehicle>
    <vehicle id="22" depart="22.00">
        <route edges="452322366 46579577#3 22946821 128578950 128578947#0 128578947#1 5673114#0"/>
    </vehicle>
    <vehicle id="23" depart="23.00">
        <route edges="196116975#2 46579578#0 46579578#1 460067515#7 5670938"/>
    </vehicle>
    <vehicle id="24" depart="24.00">
        <route edges="-46579577#2 -46579577#1 -46579577#0 -420897874 420276996 420276995#0"/>
    </vehicle>
    <vehicle id="27" depart="27.00">
        <route edges="452322366 -46579577#2 -46579577#1 -46579577#0 -420897874 420276996 5672399#0 5672399#1 5672399#2 460067515#4 460067515#5 460067515#6 460067515#7 420892268 420892267 420892262 420892266 196117084#2"/>
    </vehicle>
    <vehicle id="30" depart="30.00">
        <route edges="460067515#7 420892268 420892267 46525065#2 46525065#3 420890023 125480074 439801902 460065820 439801901#0 439801901#1 439801903 5670348#0 5670348#1 5670348#2 420897874 46579577#0 46579577#1 46579577#2 46579577#3 22946821 128578950 128578947#0 128578947#1 318474882"/>
    </vehicle>
    <vehicle id="31" depart="31.00">
        <route edges="-318474882 5673114#0 5673114#1 -47795999 -46579577#3 -46579577#2 -46579577#1 -46579577#0 -420897874 420276996 5672399#0 196116975#1 5669002#2 5669002#3"/>
    </vehicle>
    <vehicle id="33" depart="33.00">
        <route edges="460065822#0 460065822#1 439801902 460065820 439801901#0 439801901#1 439801903 171574337 91383966#0 91383966#1 91383966#2 5669002#3"/>
    </vehicle>
    <vehicle id="35" depart="35.00">
        <route edges="91383966#0 91383966#1 91383966#2 5669002#3 5670348#2 420276996 5672399#0 5672399#1 5672399#2 46579579#0"/>
    </vehicle>
    <vehicle id="36" depart="36.00">
        <route edges="420892266 196117084#2 196117084#3"/>
    </vehicle>
    <vehicle id="38" depart="38.00">
        <route edges="-420897874 420897874 46579577#0 46579577#1 46579577#2 46579577#3"/>
    </vehicle>
    <vehicle id="40" depart="40.00">
        <route edges="-318474882 5673114#0 5673114#1 -47795999 -46579577#3 -46579577#2 -46579577#1 -46579577#0 -420897874 420276996 5672399#0 196116975#1 196116975#2 46579578#0"/>
    </vehicle>
    <vehicle id="49" depart="49.00">
        <route edges="46525065#0 46525065#1 46525065#2 46525065#3 420890023 125480074 439801902 460065820 439801901#0 439801901#1 439801903 5670348#0 5670348#1 5670348#2 420897874 46579577#0 46579577#1 46579577#2 46579577#3 -46579577#3"/>
    </vehicle>
    <vehicle id="50" depart="50.00">
        <route edges="420897874 -420897874 420276996 5672399#0 5672399#1"/>
    </vehicle>
    <vehicle id="52" depart="52.00">
        <route edges="196116980#1 196116975#0 196116975#1 5669002#2 5669002#3 5670348#2 420897874 46579577#0 46579577#1"/>
    </vehicle>
    <vehicle id="54" depart="54.00">
        <route edges="5671691#0 5671691#1 5671691#2 460067515#7 420892268 420892267 46525065#2 46525065#3 420890023 125480074 439801902 460065820 439801901#0 439801901#1 439801903 5670348#0 5670348#1 5670348#2 420897874 46579577#0 46579577#1 46579577#2 46579577#3 22946821 128578950 128578947#0 128578947#1 318474882"/>
    </vehicle>
    <vehicle id="55" depart="55.00">
        <route edges="128578947#0 128578947#1 5673114#0 5673114#1 -47795999 -46579577#3 -46579577#2 -46579577#1 -46579577#0 -420897874 420276996 420276995#0 420276995#1 420276995#2 452322366"/>
    </vehicle>
    <vehicle id="58" depart="58.00">
        <route edges="420276996 5672399#0 5672399#1 5672399#2 460067515#4 460067515#5 460067515#6 460067515#7 420892268 420892267 420892262 420892266 -196117084#1 -196117084#0"/>
    </vehicle>
    <vehicle id="59" depart="59.00">
        <route edges="460067515#7 420892268 420892267 46525065#2 46525065#3 420890023 125480074 439801902 460065820 439801901#0 439801901#1 439801903 5670348#0 5670348#1 5670348#2 420897874 46579577#0 46579577#1 46579577#2 46579577#3 22946821 128578950 128578947#0 128578947#1 318474882"/>
    </vehicle>
    <vehicle id="61" depart="61.00">
        <route edges="5669002#3 5670348#2 420276996 5672399#0 5672399#1 5672399#2 460067515#4 460067515#5 460067515#6 460067515#7 420892268 420892267 420892262 420892266 420892263 420892264"/>
    </vehicle>
    <vehicle id="64" depart="64.00">
        <route edges="5669002#1 5669002#2 5669002#3 5670348#2 420897874 46579577#0 5673018#0"/>
    </vehicle>
    <vehicle id="66" depart="66.00">
        <route edges="5670348#1 5670348#2 420276996 5672399#0 5672399#1 5672399#2 460067515#4 460067515#5 460067515#6 460067515#7 420892268 420892267 420892262 420892266 196117084#2"/>
    </vehicle>
    <vehicle id="68" depart="68.00">
        <route edges="5673114#0 5673114#1 -47795999 -46579577#3 -46579577#2 -46579577#1 -46579577#0 -420897874 420276996 5672399#0 5672399#1 5672399#2 460067515#4 460067515#5 460067515#6 460067515#7 420892268 420892267"/>
    </vehicle>
    <vehicle id="72" depart="72.00">
        <route edges="46525065#1"/>
    </vehicle>
    <vehicle id="73" depart="73.00">
        <route edges="-318474882 318474882"/>
    </vehicle>
    <vehicle id="74" depart="74.00">
        <route edges="5673114#0 5673114#1 -47795999"/>
    </vehicle>
    <vehicle id="75" depart="75.00">
        <route edges="-196117084#2 420892263 420892264"/>
    </vehicle>
    <vehicle id="76" depart="76.00">
        <route edges="167922075#1 186202420#0 186202420#1 439801903 5670348#0 5670348#1 5670348#2 420276996 5672399#0 5672399#1 5672399#2 460067515#4 460067515#5 460067515#6 460067515#7 420892268 420892267 420892262 420892266 196117084#2"/>
    </vehicle>
    <vehicle id="78" depart="78.00">
        <route edges="46579577#3 -46579577#3 -46579577#2 -46579577#1 -46579577#0 -420897874 420276996 5672399#0 5672399#1 5672399#2 460067515#4 460067515#5 460067515#6 460067515#7 420892268 420892267 420892262 420892266 420892263 420892264"/>
    </vehicle>
    <vehicle id="80" depart="80.00">
        <route edges="346613530 -46579577#3 -46579577#2 -46579577#1 -46579577#0 -420897874 420276996 5672399#0 5672399#1"/>
    </vehicle>
    <vehicle id="82" depart="82.00">
        <route edges="346613530 -46579577#3 -46579577#2 -46579577#1 -46579577#0"/>
    </vehicle>
    <vehicle id="84" depart="84.00">
        <route edges="5669002#2 5669002#3 5670348#2 420276996 5672399#0 5672399#1 5672399#2 460067515#4 460067515#5 460067515#6 460067515#7 420892268 420892267 420892262 420892266 196117084#2 196117084#3"/>
    </vehicle>
    <vehicle id="85" depart="85.00">
        <route edges="5673018#1 196117085#0 196117085#1 460067515#2 460067515#3 460067515#4 460067515#5 460067515#6 460067515#7 420892268 420892267 46525065#2 46525065#3"/>
    </vehicle>
    <vehicle id="87" depart="87.00">
        <route edges="460067515#0 460067515#1 460067515#2 460067515#3 460067515#4 5669002#0 5669002#1 196116975#2 196116975#3 196116975#4 460065822#0 460065822#1 439801902 460065820 167922075#0 167922075#1 -420899373"/>
    </vehicle>
    <vehicle id="88" depart="88.00">
        <route edges="46525065#0 46525065#1"/>
    </vehicle>
    <vehicle id="89" depart="89.00">
        <route edges="46579577#1 -46579577#1 -46579577#0 -420897874 420276996 5672399#0 196116975#1 196116975#2 196116975#3 196116975#4 460065822#0 460065822#1 439801902 460065820 439801901#0 439801901#1 439801903 5670348#0 5670348#1"/>
    </vehicle>
    <vehicle id="90" depart="90.00">
        <route edges="452322366 -46579577#2 -46579577#1 -46579577#0 -420897874 420276996 5672399#0 5672399#1 5672399#2 460067515#4 460067515#5 460067515#6 460067515#7 420892268 420892267 46525065#2 46525065#3"/>
    </vehicle>
    <vehicle id="91" depart="91.00">
        <route edges="5669002#1 5669002#2 5669002#3 5670348#2 420897874 46579577#0 46579577#1 46579577#2 46579577#3 22946821 128578950 128578947#0 128578947#1 318474882"/>
    </vehicle>
    <vehicle id="92" depart="92.00">
        <route edges="196117085#0 196117085#1 460067515#2 460067515#3 460067515#4 5669002#0 5669002#1 196116975#2 196116975#3 196116975#4 460065822#0"/>
    </vehicle>
    <vehicle id="93" depart="93.00">
        <route edges="5669002#3"/>
    </vehicle>
    <vehicle id="94" depart="94.00">
        <route edges="-318474882 5673114#0 5673114#1 -47795999 -46579577#3 -46579577#2 -46579577#1 -46579577#0 -420897874 420276996 5672399#0 5672399#1 5672399#2 460067515#4 460067515#5 460067515#6 460067515#7 420892268 420892267 420892262 420892266 196117084#2"/>
    </vehicle>
    <vehicle id="96" depart="96.00">
        <route edges="460067515#0 460067515#1 460067515#2 460067515#3 460067515#4 5669002#0 5669002#1 196116975#2 196116975#3 196116975#4 460065822#0 460065822#1 439801902"/>
    </vehicle>
    <vehicle id="97" depart="97.00">
        <route edges="46525065#3 420890023 125480074 439801902 460065820 439801901#0 439801901#1 439801903 5670348#0 5670348#1 5670348#2 420276996 5672399#0 5672399#1 5672399#2 460067515#4 460067515#5 460067515#6 460067515#7 420892268 420892267 420892262 420892266 196117084#2 196117084#3"/>
    </vehicle>
    <vehicle id="99" depart="99.00">
        <route edges="-46579577#3 -46579577#2 -46579577#1 -46579577#0 -420897874 420276996 5672399#0 196116975#1 196116975#2 46579578#0"/>
    </vehicle>
    <vehicle id="100" depart="100.00">
        <route edges="439801903 5670348#0 5670348#1 5670348#2 420897874 46579577#0 46579577#1 46579577#2 46579577#3 22946821 128578950 128578947#0 128578947#1 318474882"/>
    </vehicle>
    <vehicle id="101" depart="101.00">
        <route edges="196116980#1 196117085#0 196117085#1 460067515#2 460067515#3 46579579#0"/>
    </vehicle>
    <vehicle id="102" depart="102.00">
        <route edges="-318474882 5673114#0 5673114#1 -47795999 -46579577#3 -46579577#2 -46579577#1 -46579577#0 -420897874 420276996 5672399#0 196116975#1"/>
    </vehicle>
    <vehicle id="105" depart="105.00">
        <route edges="196116975#0"/>
    </vehicle>
    <vehicle id="108" depart="108.00">
        <route edges="46579578#0 46579578#1 460067515#7 420892268 420892267 46525065#2 46525065#3 420890023 125480074 439801902 460065820 439801901#0 439801901#1 439801903 5670348#0 5670348#1 5670348#2 420897874 46579577#0 46579577#1 -46579577#1"/>
    </vehicle>
    <vehicle id="109" depart="109.00">
        <route edges="5670348#1 5670348#2 420276996 420276995#0 420276995#1 420276995#2 452322366"/>
    </vehicle>
    <vehicle id="110" depart="110.00">
        <route edges="5671691#0 5671691#1 5671691#2 460067515#7 420892268 420892267 46525065#2 46525065#3 420890023 125480074 439801902 460065820 439801901#0 439801901#1 439801903 171574337 460065821#0 460065821#1 460065822#0"/>
    </vehicle>
    <vehicle id="112" depart="112.00">
        <route edges="5672399#0 196116975#1 196116975#2"/>
    </vehicle>
    <vehicle id="116" depart="116.00">
        <route edges="5672399#0 5672399#1 5672399#2 46579579#0"/>
    </vehicle>
    <vehicle id="117" depart="117.00">
        <route edges="46579577#2 -46579577#2 -46579577#1 -46579577#0 -420897874 420276996 5672399#0 5672399#1 5672399#2 460067515#4 460067515#5 460067515#6 460067515#7 420892268 420892267 420892262 420892266 196117084#2"/>
    </vehicle>
    <vehicle id="118" depart="118.00">
        <route edges="46525065#0 46525065#1 420892262 420892266 -196117084#1 -196117084#0"/>
    </vehicle>
    <vehicle id="120" depart="120.00">
        <route edges="196116975#1 5669002#2 5669002#3 5670348#2 420897874 46579577#0 46579577#1 46579577#2 46579577#3 22946821 128578950 128578947#0 128578947#1 5673114#0"/>
    </vehicle>
    <vehicle id="121" depart="121.00">
        <route edges="46525065#1 46525065#2 46525065#3 420890023 125480074 439801902 460065820 439801901#0 439801901#1 439801903 5670348#0 5670348#1 5670348#2 420897874 46579577#0 46579577#1 46579577#2 46579577#3 22946821 128578950 128578947#0 128578947#1 318474882"/>
    </vehicle>
    <vehicle id="124" depart="124.00">
        <route edges="46579577#3 -46579577#3 -46579577#2 -46579577#1 -46579577#0 -420897874 420276996 5672399#0 5672399#1 5672399#2 460067515#4 460067515#5 460067515#6 460067515#7 5670938"/>
    </vehicle>
    <vehicle id="127" depart="127.00">
        <route edges="420276996 5672399#0 196116975#1 196116975#2 196116975#3 196116975#4 460065822#0 460065822#1 439801902 460065820 439801901#0 439801901#1 439801903 5670348#0"/>
    </vehicle>
    <vehicle id="129" depart="129.00">
        <route edges="5671691#1 5671691#2 460067515#7 420892268 420892267 46525065#2 46525065#3"/>
    </vehicle>
    <vehicle id="131" depart="131.00">
        <route edges="346613530 -46579577#3 -46579577#2 -46579577#1 -46579577#0 -420897874 420276996 5672399#0 196116975#1 5669002#2 5669002#3"/>
    </vehicle>
    <vehicle id="136" depart="136.00">
        <route edges="-318474882 5673114#0 5673114#1 -47795999 -46579577#3 -46579577#2"/>
    </vehicle>
    <vehicle id="137" depart="137.00">
        <route edges="460067515#4 5669002#0 5669002#1 5669002#2"/>
    </vehicle>
    <vehicle id="138" depart="138.00">
        <route edges="-318474882 318474882"/>
    </vehicle>
    <vehicle id="139" depart="139.00">
        <route edges="420899373 186202420#0 186202420#1 439801903 5670348#0 5670348#1 5670348#2 420276996 5672399#0 5672399#1 5672399#2 460067515#4 460067515#5 460067515#6 460067515#7 420892268 420892267 420892262 420892266 420892263"/>
    </vehicle>
    <vehicle id="140" depart="140.00">
        <route edges="5669002#3 5670348#2 420276996 5672399#0 196116975#1 196116975#2 196116975#3"/>
    </vehicle>
    <vehicle id="141" depart="141.00">
        <route edges="46525065#1 46525065#2 46525065#3 420890023 125480074 439801902 460065820 439801901#0 439801901#1 439801903 5670348#0 5670348#1 5670348#2 420276996 5672399#0 5672399#1 5672399#2 460067515#4 460067515#5 460067515#6 460067515#7"/>
    </vehicle>
    <vehicle id="144" depart="144.00">
        <route edges="46579578#0 46579578#1 460067515#7 420892268 420892267 46525065#2 46525065#3 420890023 125480074 439801902 460065820 439801901#0 439801901#1 439801903 171574337 91383966#0 91383966#1 91383966#2 5669002#3"/>
    </vehicle>
    <vehicle id="145" depart="145.00">
        <route edges="196116975#0 5672399#1 5672399#2 460067515#4"/>
    </vehicle>
    <vehicle id="147" depart="147.00">
        <route edges="5670348#2 420276996 5672399#0 196116975#1 5669002#2 91383966#3"/>
    </vehicle>
    <vehicle id="149" depart="149.00">
        <route edges="46525065#1 46525065#2 46525065#3 420890023 125480074 439801902 460065820 439801901#0 439801901#1 439801903 5670348#0 5670348#1 5670348#2 420276996 420276995#0 420276995#1 420276995#2 452322366"/>
    </vehicle>
    <vehicle id="153" depart="153.00">
        <route edges="420276995#0 5673018#1 196116975#0 196116975#1 5669002#2 5669002#3 5670348#2"/>
    </vehicle>
    <vehicle id="154" depart="154.00">
        <route edges="46525065#0 46525065#1 46525065#2 46525065#3 420890023 125480074 439801902 460065820 439801901#0 439801901#1 439801903 5670348#0 5670348#1 5670348#2 420897874 46579577#0 46579577#1 46579577#2 46579577#3 22946821 128578950 128578947#0 128578947#1 318474882"/>
    </vehicle>
    <vehicle id="159" depart="159.00">
        <route edges="-318474882 5673114#0 5673114#1 -47795999 -46579577#3 -46579577#2 -46579577#1 -46579577#0 -420897874 420276996 5672399#0 5672399#1 5672399#2 460067515#4 460067515#5 460067515#6 460067515#7 5670938"/>
    </vehicle>
    <vehicle id="161" depart="161.00">
        <route edges="-318474882 5673114#0 5673114#1 -47795999 -46579577#3 46579577#3"/>
    </vehicle>
    <vehicle id="163" depart="163.00">
        <route edges="196116975#3 196116975#4 460065822#0 460065822#1 439801902 460065820 439801901#0 439801901#1 439801903 5670348#0 5670348#1 5670348#2 420276996 420276995#0 420276995#1 420276995#2 452322366"/>
    </vehicle>
    <vehicle id="164" depart="164.00">
        <route edges="-196117084#3 -196117084#2 420892263 420892264"/>
    </vehicle>
    <vehicle id="166" depart="166.00">
        <route edges="5673018#0 5673018#1 196116975#0 196116975#1 5669002#2 5669002#3"/>
    </vehicle>
    <vehicle id="167" depart="167.00">
        <route edges="5671691#1 5671691#2 460067515#7 420892268 420892267 46525065#2 46525065#3 420890023 125480074 439801902 460065820 439801901#0 439801901#1 439801903 5670348#0 5670348#1 5670348#2 420276996 5672399#0 5672399#1 5672399#2 460067515#4 5669002#0 5669002#1"/>
    </vehicle>
    <vehicle id="169" depart="169.00">
        <route edges="196116975#1 196116975#2 46579578#0 46579578#1 460067515#7 420892268"/>
    </vehicle>
    <vehicle id="170" depart="170.00">
        <route edges="196117084#2 -196117084#2 420892263 420892264"/>
    </vehicle>
    <vehicle id="172" depart="172.00">
        <route edges="196116980#0 196116980#1 196117085#0 196117085#1 460067515#2 460067515#3 460067515#4 460067515#5 460067515#6 460067515#7 420892268 420892267 46525065#2 46525065#3"/>
    </vehicle>
    <vehicle id="174" depart="174.00">
        <route edges="5670348#1 5670348#2 420276996 5672399#0 5672399#1 5672399#2 460067515#4 460067515#5 460067515#6 460067515#7 420892268 420892267"/>
    </vehicle>
    <vehicle id="175" depart="175.00">
        <route edges="-46579577#2 -46579577#1 -46579577#0 -420897874 420276996 5672399#0 5672399#1 5672399#2 460067515#4 460067515#5 460067515#6 460067515#7 420892268 420892267 420892262 420892266 196117084#2"/>
    </vehicle>
    <vehicle id="176" depart="176.00">
        <route edges="5673018#0 5673018#1 196117085#0 196117085#1 460067515#2 460067515#3 460067515#4 460067515#5 460067515#6 460067515#7 420892268 420892267 420892262 420892266 196117084#2"/>
    </vehicle>
    <vehicle id="177" depart="177.00">
        <route edges="5671691#0 5671691#1 5671691#2 460067515#7 420892268 420892267 46525065#2 46525065#3 420890023 125480074 439801902 460065820 439801901#0 439801901#1 439801903 5670348#0 5670348#1 5670348#2 420897874 46579577#0 46579577#1 46579577#2 46579577#3 22946821 128578950 128578947#0 128578947#1 318474882"/>
    </vehicle>
    <vehicle id="179" depart="179.00">
        <route edges="5671691#0 5671691#1 5671691#2 460067515#7 420892268 420892267 46525065#2 46525065#3 420890023 125480074 439801902 460065820 439801901#0 439801901#1 439801903 5670348#0 5670348#1 5670348#2 420276996 420276995#0 420276995#1 420276995#2 420276995#3"/>
    </vehicle>
    <vehicle id="180" depart="180.00">
        <route edges="46525065#0 46525065#1 46525065#2 46525065#3 420890023 125480074 439801902 460065820 439801901#0 439801901#1 439801903 5670348#0 5670348#1 5670348#2 420276996 420276995#0 420276995#1"/>
    </vehicle>
    <vehicle id="183" depart="183.00">
        <route edges="196117084#0 196117084#1 196117084#2 196117084#3"/>
    </vehicle>
    <vehicle id="185" depart="185.00">
        <route edges="46579578#0 46579578#1 460067515#7 420892268 420892267 46525065#2 46525065#3 420890023 125480074 439801902 460065820 439801901#0 439801901#1 439801903 5670348#0 5670348#1 5670348#2 420276996 420276995#0"/>
    </vehicle>
    <vehicle id="186" depart="186.00">
        <route edges="-318474882 5673114#0 5673114#1 -47795999 -46579577#3 -46579577#2 -46579577#1 -46579577#0 -420897874 420276996 5672399#0 5672399#1 5672399#2 460067515#4 460067515#5 460067515#6 460067515#7 420892268 420892267 46525065#2 46525065#3"/>
    </vehicle>
    <vehicle id="187" depart="187.00">
        <route edges="128578947#1 5673114#0 5673114#1 -47795999 -46579577#3 -46579577#2 -46579577#1 -46579577#0 -420897874 420276996 5672399#0 5672399#1 5672399#2 460067515#4 460067515#5 460067515#6 460067515#7 420892268 420892267 46525065#2 46525065#3"/>
    </vehicle>
    <vehicle id="188" depart="188.00">
        <route edges="346613530 -46579577#3 -46579577#2 -46579577#1 -46579577#0 -420897874 420276996 5672399#0 196116975#1 196116975#2 196116975#3 196116975#4 460065822#0 460065822#1 439801902 460065820 439801901#0 439801901#1 439801903 171574337 91383966#0 91383966#1"/>
    </vehicle>
    <vehicle id="190" depart="190.00">
        <route edges="46579577#3 -46579577#3 -46579577#2 -46579577#1 -46579577#0 -420897874 420276996 5672399#0 5672399#1 5672399#2 46579579#0"/>
    </vehicle>
    <vehicle id="191" depart="191.00">
        <route edges="5669002#3 5670348#2 420276996 5672399#0 5672399#1 5672399#2 460067515#4 460067515#5 460067515#6 460067515#7 420892268 420892267"/>
    </vehicle>
    <vehicle id="193" depart="193.00">
        <route edges="22946813#1 44225601 318476063 330748464#0 330748464#1 330748465#0 330748465#1 22946829 385446610 385446617#0 385446617#1 385446617#2"/>
    </vehicle>
    <vehicle id="194" depart="194.00">
        <route edges="196117085#0 196117085#1 460067515#2 460067515#3 460067515#4 460067515#5 460067515#6 460067515#7 420892268 420892267 420892262 420892266 196117084#2"/>
    </vehicle>
    <vehicle id="195" depart="195.00">
        <route edges="5671691#1 5671691#2 460067515#7 420892268 420892267 46525065#2 46525065#3 420890023 125480074 439801902 460065820 439801901#0 439801901#1 439801903 5670348#0 5670348#1 5670348#2 420897874 46579577#0 46579577#1 46579577#2 46579577#3 22946821 128578950 128578947#0 128578947#1 318474882"/>
    </vehicle>
    <vehicle id="196" depart="196.00">
        <route edges="196116980#0 196116980#1 196117085#0 196117085#1 460067515#2 460067515#3 46579579#0 46579579#1 46579579#2"/>
    </vehicle>
    <vehicle id="197" depart="197.00">
        <route edges="5673018#0 420276995#1 420276995#2 452322366 46579577#3 22946821 128578950 128578947#0 128578947#1 318474882"/>
    </vehicle>
    <vehicle id="198" depart="198.00">
        <route edges="46525065#0 46525065#1 46525065#2 46525065#3 420890023 125480074 439801902 460065820 439801901#0 439801901#1 439801903 171574337 91383966#0 91383966#1 91383966#2 91383966#3"/>
    </vehicle>
    <vehicle id="199" depart="199.00">
        <route edges="196116975#0"/>
    </vehicle>
    <vehicle id="200" depart="200.00">
        <route edges="91383966#1 91383966#2 91383966#3"/>
    </vehicle>
    <vehicle id="202" depart="202.00">
        <route edges="46579578#0 46579578#1 460067515#7 420892268 420892267 46525065#2 46525065#3 420890023 125480074 439801902 460065820 439801901#0 439801901#1 439801903 5670348#0 5670348#1 5670348#2 420897874 46579577#0 5673018#0"/>
    </vehicle>
    <vehicle id="203" depart="203.00">
        <route edges="452322366 -46579577#2 -46579577#1 -46579577#0 -420897874 420276996 5672399#0 5672399#1 5672399#2 460067515#4 460067515#5 460067515#6 460067515#7"/>
    </vehicle>
    <vehicle id="205" depart="205.00">
        <route edges="5670348#2 420276996 5672399#0 196116975#1"/>
    </vehicle>
    <vehicle id="206" depart="206.00">
        <route edges="346613530 22946821 128578950 128578947#0"/>
    </vehicle>
    <vehicle id="207" depart="207.00">
        <route edges="46579577#2 -46579577#2 -46579577#1 -46579577#0 -420897874 420276996 5672399#0 5672399#1 5672399#2 460067515#4 460067515#5 460067515#6 460067515#7 5670938"/>
    </vehicle>
    <vehicle id="210" depart="210.00">
        <route edges="5673018#0 420276995#1 420276995#2 452322366 46579577#3 47795999 -47795999"/>
    </vehicle>
    <vehicle id="213" depart="213.00">
        <route edges="-318474882 5673114#0 5673114#1 -47795999 -46579577#3 -46579577#2 -46579577#1 -46579577#0 -420897874 420276996 5672399#0 196116975#1 196116975#2 196116975#3 196116975#4 460065822#0 460065822#1 439801902 460065820 439801901#0 439801901#1 439801903 5670348#0"/>
    </vehicle>
    <vehicle id="214" depart="214.00">
        <route edges="196117084#2"/>
    </vehicle>
    <vehicle id="216" depart="216.00">
        <route edges="196116980#1 196116975#0 196116975#1 5669002#2 91383966#3 420276995#0 420276995#1 420276995#2 452322366"/>
    </vehicle>
    <vehicle id="219" depart="219.00">
        <route edges="167922075#1 186202420#0 186202420#1 439801903 5670348#0 5670348#1 5670348#2 420276996 420276995#0 420276995#1 420276995#2 452322366"/>
    </vehicle>
    <vehicle id="221" depart="221.00">
        <route edges="452322366 -46579577#2 -46579577#1 -46579577#0 -420897874 420276996 5672399#0 5672399#1 5672399#2 460067515#4 460067515#5 460067515#6 460067515#7 420892268 420892267 420892262 420892266 -196117084#1 -196117084#0"/>
    </vehicle>
    <vehicle id="222" depart="222.00">
        <route edges="346613530 -46579577#3"/>
    </vehicle>
    <vehicle id="227" depart="227.00">
        <route edges="-420897874 420276996 5672399#0 5672399#1 5672399#2 460067515#4 460067515#5 460067515#6 460067515#7 5670938"/>
    </vehicle>
    <vehicle id="230" depart="230.00">
        <route edges="460067515#4 5669002#0 5669002#1 5669002#2 5669002#3 5670348#2 420897874 46579577#0 46579577#1 46579577#2 46579577#3 22946821 128578950 128578947#0 128578947#1 318474882"/>
    </vehicle>
    <vehicle id="231" depart="231.00">
        <route edges="186202420#1 439801903 5670348#0 5670348#1 5670348#2 420897874 46579577#0 46579577#1 46579577#2 46579577#3 47795999 -47795999"/>
    </vehicle>
    <vehicle id="234" depart="234.00">
        <route edges="46525065#1 420892262 420892266 196117084#2"/>
    </vehicle>
    <vehicle id="235" depart="235.00">
        <route edges="-318474882 5673114#0 5673114#1 -47795999 -46579577#3 -46579577#2 -46579577#1 -46579577#0 -420897874 420276996 5672399#0 5672399#1 5672399#2 46579579#0 46579579#1 46579579#2"/>
    </vehicle>
    <vehicle id="236" depart="236.00">
        <route edges="-46579577#3 -46579577#2 -46579577#1 -46579577#0 -420897874 420276996 5672399#0 196116975#1 196116975#2 46579578#0"/>
    </vehicle>
    <vehicle id="237" depart="237.00">
        <route edges="420899373 186202420#0 186202420#1 439801903 5670348#0 5670348#1 5670348#2 420897874 46579577#0 46579577#1 46579577#2 46579577#3 47795999 -47795999"/>
    </vehicle>
    <vehicle id="238" depart="238.00">
        <route edges="5671691#0 5671691#1 5671691#2 460067515#7 420892268 420892267 46525065#2 46525065#3 420890023 125480074 439801902 460065820 439801901#0 439801901#1 439801903 171574337 91383966#0 91383966#1 91383966#2 5669002#3"/>
    </vehicle>